pglib_opf_case2869_pegase/pglib_opf_case2869_pegase_12regions.m
% -------------------------------------------------------------------------
% Partitioned MATPOWER Case File
% Copyright (c) 2025 Milad Hasanzadeh
% Generated on: 2025-06-25
% This file contains partitioned data for 12 regions


% -------------------- mpc_regionR1 --------------------

mpc_regionR1.version = '2';
mpc_regionR1.baseMVA = 100.0000;
mpc_regionR1.bus = [
%	bus_i       type        Pd          Qd          Gs          Bs          area        Vm          Va          baseKV      zone        Vmax        Vmin        
	 1	 2	 0	 0	 0	 0	 0	 1	 0	 150	 10	 1.1	 0.9;
	 2	 1	-0	 0	 0.135375	 47.750675	 0	 1	 0	 380	 10	 1.1	 0.9;
	 3	 1	 0	-0	 0	 21.39	 0	 1	 0	 380	 1	 1.1	 0.9;
	 4	 1	-75.38	 7.8	 0	 29.9	 0	 1	 0	 380	 10	 1.1	 0.9;
	 5	 1	 94.9	 36.2	 0	 16.46	 0	 1	 0	 220	 10	 1.1	 0.9;
	 6	 1	-0	 0	 0	 1.29	 0	 1	 0	 380	 10	 1.1	 0.9;
	 7	 1	 2.2	 0.5	 0	 0.21	 0	 1	 0	 150	 10	 1.1	 0.9;
	 8	 1	-0	-0	 0	 2.13	 0	 1	 0	 220	 10	 1.1	 0.9;
	 9	 1	 303.8	 85.4	 0	 3.63	 0	 1	 0	 220	 10	 1.1	 0.9;
	 10	 1	-95.71	-2.8	 0	 7.25	 0	 1	 0	 220	 10	 1.1	 0.9;
	 11	 2	 0	 0	 0	 0	 0	 1	 0	 150	 10	 1.1	 0.9;
	 12	 1	-0	 0	 0	 1.24	 0	 1	 0	 380	 1	 1.1	 0.9;
	 13	 1	-0	 0	 0.199768	 27.888516	 0	 1	 0	 380	 10	 1.1	 0.9;
	 14	 1	 87.8	-1.4	 0.079073	 36.047349	 0	 1	 0	 380	 10	 1.1	 0.9;
	 15	 1	 79.69	 39.6	 0	 18.83	 0	 1	 0	 380	 10	 1.1	 0.9;
	 16	 1	 180.8	 90.8	 0	 2.42	 0	 1	 0	 150	 10	 1.1	 0.9;
	 17	 1	-0	 0	 0	 0.91	 0	 1	 0	 150	 10	 1.1	 0.9;
	 18	 2	 0	 0	 0	 0	 0	 1	 0	 220	 10	 1.1	 0.9;
	 19	 2	 0	 0	 0	 0	 0	 1	 0	 220	 10	 1.1	 0.9;
	 20	 1	-0	-0	 0	 0.48	 0	 1	 0	 150	 10	 1.1	 0.9;
	 21	 2	 0	 0	 0	 0	 0	 1	 0	 220	 10	 1.1	 0.9;
	 22	 1	-0	-0	 0	 4.03	 0	 1	 0	 220	 10	 1.1	 0.9;
	 23	 1	 15.82	 4	 0	 0.7	 0	 1	 0	 150	 10	 1.1	 0.9;
	 24	 1	-0	 0	 0	 1.18	 0	 1	 0	 150	 10	 1.1	 0.9;
	 25	 1	 0	-0	 0	 1.8	 0	 1	 0	 220	 1	 1.1	 0.9;
	 26	 1	 241.4	-2.5	 0.224624	 31.280331	 0	 1	 0	 380	 10	 1.1	 0.9;
	 27	 2	 0	 0	 0	 0	 0	 1	 0	 220	 10	 1.1	 0.9;
	 28	 1	-54.06	 13.1	 0	 14.23	 0	 1	 0	 220	 10	 1.1	 0.9;
	 29	 1	-0	 0	 0	 1.91	 0	 1	 0	 380	 10	 1.1	 0.9;
	 30	 2	 0	 0	 0	 0	 0	 1	 0	 150	 10	 1.1	 0.9;
	 31	 1	 0	-0	 0	 0	 0	 1	 0	 220	 10	 1.1	 0.9;
	 32	 1	 39.44	 24.9	 0	 4.18	 0	 1	 0	 150	 10	 1.1	 0.9;
	 33	 1	 108.4	-2.4	 0	 80.12	 0	 1	 0	 380	 10	 1.1	 0.9;
	 34	 1	 0	-0	 0	 4.15	 0	 1	 0	 150	 10	 1.1	 0.9;
	 35	 1	 0	-0	 0	 2.54	 0	 1	 0	 220	 10	 1.1	 0.9;
	 36	 1	 116.7	 64	 0	 10.41	 0	 1	 0	 220	 10	 1.1	 0.9;
	 37	 2	 0	 0	 0	 0	 0	 1	 0	 380	 10	 1.1	 0.9;
	 38	 2	 0	 0	 0	 0	 0	 1	 0	 150	 10	 1.1	 0.9;
	 39	 1	 68.28	 39	 0.19855	 79.84755	 0	 1	 0	 380	 10	 1.1	 0.9;
	 40	 1	-0	 0	 0	 3.65	 0	 1	 0	 220	 10	 1.1	 0.9;
	 41	 1	-0	-0	 0	 2.55	 0	 1	 0	 220	 10	 1.1	 0.9;
	 42	 1	-32.04	 10.3	 0	 82.52	 0	 1	 0	 380	 10	 1.1	 0.9;
	 43	 1	 22.02	 21.8	 0	 10.29	 0	 1	 0	 220	 10	 1.1	 0.9;
	 44	 1	 177.4	 41.7	 0	 2.98	 0	 1	 0	 150	 10	 1.1	 0.9;
	 45	 1	 0	-0	 0.202076	 48.319777	 0	 1	 0	 380	 10	 1.1	 0.9;
	 46	 1	 241.9	 38.8	 0	 12.46	 0	 1	 0	 220	 10	 1.1	 0.9;
	 47	 2	 0	 0	 0	 0	 0	 1	 0	 380	 10	 1.1	 0.9;
	 48	 1	-40.44	 1.5	 0	 14.2	 0	 1	 0	 220	 10	 1.1	 0.9;
	 49	 1	-0	-0	 0.104186	 55.436651	 0	 1	 0	 380	 10	 1.1	 0.9;
	 50	 1	 0	 0	 0	 1.31	 0	 1	 0	 380	 10	 1.1	 0.9;
	 51	 1	 0	 0	 0	 1.2	 0	 1	 0	 150	 10	 1.1	 0.9;
	 52	 2	 0	 0	 0	 0	 0	 1	 0	 150	 10	 1.1	 0.9;
	 53	 1	 269.9	 12.4	 0	 4.09	 0	 1	 0	 150	 10	 1.1	 0.9;
	 54	 1	 117.13	 52.4	 0	 7.51	 0	 1	 0	 150	 10	 1.1	 0.9;
	 55	 1	 3.9	-35.8	 0	 4.71	 0	 1	 0	 220	 10	 1.1	 0.9;
	 56	 2	 0	 0	 0	 0	 0	 1	 0	 220	 10	 1.1	 0.9;
	 57	 1	 0	 0	 0	 9.36	 0	 1	 0	 220	 10	 1.1	 0.9;
	 58	 1	-88.6	-24.2	 0	 5.66	 0	 1	 0	 220	 10	 1.1	 0.9;
	 59	 2	 0	 0	 0	 0	 0	 1	 0	 150	 10	 1.1	 0.9;
	 60	 1	 285.2	 65.3	 0	 11.28	 0	 1	 0	 220	 10	 1.1	 0.9;
	 61	 1	-61.67	-0.9	 0	 12.33	 0	 1	 0	 150	 10	 1.1	 0.9;
	 62	 2	 0	 0	 0	 0	 0	 1	 0	 150	 10	 1.1	 0.9;
	 63	 2	 0	 0	 0	 0	 0	 1	 0	 150	 10	 1.1	 0.9;
	 64	 1	-0	 0	 0	 0.64	 0	 1	 0	 150	 10	 1.1	 0.9;
	 65	 1	-0	-0	 0	 44.66	 0	 1	 0	 380	 10	 1.1	 0.9;
	 66	 1	 4.81	 1.2	 0	 0.13	 0	 1	 0	 150	 10	 1.1	 0.9;
	 67	 1	 108.8	 33.2	 0.358716	 45.62985	 0	 1	 0	 380	 10	 1.1	 0.9;
	 68	 2	 0	 0	 0	 0	 0	 1	 0	 220	 10	 1.1	 0.9;
	 69	 1	-0	-0	 0.256503	 101.229042	 0	 1	 0	 380	 10	 1.1	 0.9;
	 70	 1	-20.92	 2.5	 0	 16.42	 0	 1	 0	 220	 10	 1.1	 0.9;
	 71	 1	 0	 0	 0	 5.21	 0	 1	 0	 220	 10	 1.1	 0.9;
	 72	 1	-0	 0	 0	 1.87	 0	 1	 0	 380	 10	 1.1	 0.9;
	 73	 1	 0	-0	 0	 61.52	 0	 1	 0	 380	 10	 1.1	 0.9;
	 74	 1	-0	 0	 0	 4.62	 0	 1	 0	 220	 10	 1.1	 0.9;
	 75	 1	 46.85	 16.6	 0	 2.08	 0	 1	 0	 150	 10	 1.1	 0.9;
	 76	 1	 19.42	 7	 0	 0.6	 0	 1	 0	 150	 10	 1.1	 0.9;
	 77	 2	 0	 0	 0	 0	 0	 1	 0	 220	 10	 1.1	 0.9;
	 78	 1	 175.4	 28.8	 0	 2.03	 0	 1	 0	 150	 10	 1.1	 0.9;
	 79	 1	-3.4	-0.5	 0	 0.23	 0	 1	 0	 220	 10	 1.1	 0.9;
	 80	 2	 0	 0	 0	 0	 0	 1	 0	 220	 10	 1.1	 0.9;
	 81	 1	 0	-0	 0	 4.08	 0	 1	 0	 220	 10	 1.1	 0.9;
	 82	 2	 0	 0	 0	 0	 0	 1	 0	 150	 10	 1.1	 0.9;
	 83	 2	 0	 0	 0	 0	 0	 1	 0	 150	 10	 1.1	 0.9;
	 84	 1	-0	 0	 0	 4.86	 0	 1	 0	 220	 10	 1.1	 0.9;
	 85	 1	 310.8	 162.6	 0	 19.47	 0	 1	 0	 220	 10	 1.1	 0.9;
	 86	 1	-0	-0	 0	 0.04	 0	 1	 0	 220	 10	 1.1	 0.9;
	 87	 2	 0	 0	 0	 0	 0	 1	 0	 220	 10	 1.1	 0.9;
	 88	 1	 7.01	 1.8	 0	 35.44	 0	 1	 0	 380	 10	 1.1	 0.9;
	 89	 1	 0	-0	 0	 0.17	 0	 1	 0	 150	 10	 1.1	 0.9;
	 90	 1	 61.67	 28.3	 0	 0.1	 0	 1	 0	 220	 10	 1.1	 0.9;
	 91	 1	 2.2	 0.5	 0	 2.31	 0	 1	 0	 150	 10	 1.1	 0.9;
	 92	 1	-0	 0	 0	 12.88	 0	 1	 0	 220	 10	 1.1	 0.9;
	 93	 2	 0	 0	 0	 0	 0	 1	 0	 150	 10	 1.1	 0.9;
	 94	 1	-0	 0	 0	 1.63	 0	 1	 0	 150	 10	 1.1	 0.9;
	 95	 2	 0	 0	 0	 0	 0	 1	 0	 220	 10	 1.1	 0.9;
	 96	 1	 68.48	-10.6	 0	 2.65	 0	 1	 0	 150	 10	 1.1	 0.9;
	 97	 2	 0	 0	 0	 0	 0	 1	 0	 380	 10	 1.1	 0.9;
	 98	 1	 0	 0	 0	 2.7	 0	 1	 0	 220	 1	 1.1	 0.9;
	 99	 1	-0	 0	 0	 2.32	 0	 1	 0	 380	 10	 1.1	 0.9;
	 100	 1	 2.2	 0.6	 0	 0.04	 0	 1	 0	 150	 10	 1.1	 0.9;
	 101	 1	-0	 0	 0	 0	 0	 1	 0	 220	 10	 1.1	 0.9;
	 102	 1	 0	-0	 0.304554	 30.256205	 0	 1	 0	 380	 10	 1.1	 0.9;
	 103	 1	-0	 0	 0.073728	 5.986272	 0	 1	 0	 220	 10	 1.1	 0.9;
	 104	 1	 0	-0	 0	 6.11	 0	 1	 0	 150	 10	 1.1	 0.9;
	 105	 1	 2.2	 0	 0	 4.81	 0	 1	 0	 220	 10	 1.1	 0.9;
	 106	 1	 0	 0	 0	 1.32	 0	 1	 0	 150	 10	 1.1	 0.9;
	 107	 1	 39.84	 6.4	 0	 34.58	 0	 1	 0	 380	 10	 1.1	 0.9;
	 108	 1	 2.2	 0.5	 0	 2.88	 0	 1	 0	 150	 10	 1.1	 0.9;
	 109	 1	 3.8	 1.1	 0	 10.69	 0	 1	 0	 380	 10	 1.1	 0.9;
	 110	 2	 0	 0	 0	 0	 0	 1	 0	 380	 4	 1.1	 0.9;
	 111	 1	-58.77	 18.7	 0	 4.23	 0	 1	 0	 150	 10	 1.1	 0.9;
	 112	 1	-0	-0	 0	 5.02	 0	 1	 0	 220	 10	 1.1	 0.9;
	 113	 1	 0	 0	 0	 0.23	 0	 1	 0	 380	 10	 1.1	 0.9;
	 114	 1	 2.2	 0.5	 0	 0.06	 0	 1	 0	 220	 10	 1.1	 0.9;
	 115	 1	 2.2	 0.5	 0	 1.84	 0	 1	 0	 150	 10	 1.1	 0.9;
	 116	 1	-0	 0	 0	 0.23	 0	 1	 0	 150	 10	 1.1	 0.9;
	 117	 1	 83.59	-7.2	 0	 12.95	 0	 1	 0	 220	 10	 1.1	 0.9;
	 118	 1	-16.62	 8.7	 0	 7.68	 0	 1	 0	 220	 10	 1.1	 0.9;
	 119	 1	-0	 0	 0	 2.77	 0	 1	 0	 220	 10	 1.1	 0.9;
	 120	 1	 82.09	 39.8	 0	 2.35	 0	 1	 0	 150	 10	 1.1	 0.9;
	 121	 1	 34.24	-19.6	 0	 3.59	 0	 1	 0	 150	 10	 1.1	 0.9;
	 122	 1	 0	-0	 0	 2.66	 0	 1	 0	 220	 10	 1.1	 0.9;
	 123	 1	-0	 0	 0.19855	 29.549	 0	 1	 0	 380	 10	 1.1	 0.9;
	 124	 1	-0	-0	 0	 1.1	 0	 1	 0	 220	 10	 1.1	 0.9;
	 125	 1	 185.7	 18.4	 0	 23.68	 0	 1	 0	 220	 10	 1.1	 0.9;
	 126	 2	 0	 0	 0	 0	 0	 1	 0	 220	 10	 1.1	 0.9;
	 127	 1	 139.7	 9.7	 0	 12.61	 0	 1	 0	 220	 10	 1.1	 0.9;
	 128	 1	 4.4	 1.1	 0	 0.41	 0	 1	 0	 220	 10	 1.1	 0.9;
	 129	 1	 334.1	 103.5	 0	 14.78	 0	 1	 0	 220	 10	 1.1	 0.9;
	 130	 1	 167.6	-9	 0	 0.39	 0	 1	 0	 150	 10	 1.1	 0.9;
	 131	 1	 5.21	 1.3	 0	 24.85	 0	 1	 0	 380	 10	 1.1	 0.9;
	 132	 2	 0	 0	 0	 0	 0	 1	 0	 220	 10	 1.1	 0.9;
	 133	 1	-0	 0	 0	 1.44	 0	 1	 0	 150	 10	 1.1	 0.9;
	 134	 1	-0	 0	 0	 2.78	 0	 1	 0	 220	 1	 1.1	 0.9;
	 135	 1	 0	 0	 0	 2.37	 0	 1	 0	 380	 10	 1.1	 0.9;
	 136	 1	 0	 0	 0.361	 33.735	 0	 1	 0	 380	 10	 1.1	 0.9;
	 137	 1	 2.2	 0.5	 0	 0.5	 0	 1	 0	 150	 10	 1.1	 0.9;
	 138	 1	-0	 0	 0.361	 25.935	 0	 1	 0	 380	 10	 1.1	 0.9;
	 139	 1	 209.9	 38	 0	 5.26	 0	 1	 0	 150	 10	 1.1	 0.9;
	 140	 1	 0	-0	 0	 9.9	 0	 1	 0	 220	 10	 1.1	 0.9;
	 141	 2	 0	 0	 0	 0	 0	 1	 0	 220	 10	 1.1	 0.9;
	 142	 1	 0	-0	 0.274712	 52.929035	 0	 1	 0	 380	 10	 1.1	 0.9;
	 143	 1	 0	-0	 0	 2.05	 0	 1	 0	 220	 10	 1.1	 0.9;
	 144	 2	 0	 0	 0	 0	 0	 1	 0	 150	 10	 1.1	 0.9;
	 145	 1	-0	 0	 0	 2.27	 0	 1	 0	 380	 10	 1.1	 0.9;
	 146	 1	 246.2	 119.1	 0	 31.72	 0	 1	 0	 220	 10	 1.1	 0.9;
	 147	 1	-0	 0	 0	 3.36	 0	 1	 0	 380	 10	 1.1	 0.9;
	 148	 2	 0	 0	 0	 0	 0	 1	 0	 220	 10	 1.1	 0.9;
	 149	 2	 0	 0	 0	 0	 0	 1	 0	 150	 10	 1.1	 0.9;
	 150	 1	 0	-0	 0	 8.2	 0	 1	 0	 380	 1	 1.1	 0.9;
	 151	 1	 49.26	 30.9	 0.097351	 12.97086	 0	 1	 0	 220	 10	 1.1	 0.9;
	 152	 1	-0	 0	 0	 3.4	 0	 1	 0	 150	 10	 1.1	 0.9;
	 153	 1	 0.9	 0.3	 0	 0.12	 0	 1	 0	 150	 10	 1.1	 0.9;
	 154	 1	 4.21	 1.2	 0	 30.55	 0	 1	 0	 380	 10	 1.1	 0.9;
	 155	 1	-73.98	-29.8	 0	 17.77	 0	 1	 0	 220	 10	 1.1	 0.9;
	 156	 1	 389.8	-68.1	 0	 5.03	 0	 1	 0	 220	 10	 1.1	 0.9;
	 157	 1	-0	-0	 0	 2.77	 0	 1	 0	 220	 10	 1.1	 0.9;
	 158	 1	-175.8	-19.6	 0	 14.58	 0	 1	 0	 220	 10	 1.1	 0.9;
	 159	 1	-0	 0	 0	 2.2	 0	 1	 0	 380	 10	 1.1	 0.9;
	 160	 2	 0	 0	 0	 0	 0	 1	 0	 220	 10	 1.1	 0.9;
	 161	 1	 0	 0	 0	 1.99	 0	 1	 0	 220	 10	 1.1	 0.9;
	 162	 1	 220.8	 68.6	 0	 1.97	 0	 1	 0	 220	 10	 1.1	 0.9;
	 163	 2	 0	 0	 0	 0	 0	 1	 0	 220	 10	 1.1	 0.9;
	 164	 1	-40.95	-28.4	 0	 7.29	 0	 1	 0	 150	 10	 1.1	 0.9;
	 165	 1	-0	 0	 0	 0.68	 0	 1	 0	 150	 10	 1.1	 0.9;
	 166	 1	-0	-0	 0	 1.86	 0	 1	 0	 220	 10	 1.1	 0.9;
	 167	 1	 88	 36.2	 0	 60	 0	 1	 0	 380	 10	 1.1	 0.9;
	 168	 1	 0	-0	 0	 1.18	 0	 1	 0	 150	 10	 1.1	 0.9;
	 169	 1	 70.48	 17.6	 0	 3.92	 0	 1	 0	 220	 10	 1.1	 0.9;
	 170	 2	 0	 0	 0	 0	 0	 1	 0	 220	 10	 1.1	 0.9;
	 171	 1	 2.2	 0.5	 0	 0.58	 0	 1	 0	 220	 10	 1.1	 0.9;
	 172	 2	 0	 0	 0	 0	 0	 1	 0	 220	 10	 1.1	 0.9;
	 173	 1	 0	-0	 0	 0.46	 0	 1	 0	 150	 10	 1.1	 0.9;
	 174	 1	 0	-0	 0	 43	 0	 1	 0	 380	 10	 1.1	 0.9;
	 175	 1	 137.2	 41.9	 0.101088	 13.207291	 0	 1	 0	 380	 10	 1.1	 0.9;
	 176	 1	 73.58	 48.6	 0	 2.87	 0	 1	 0	 150	 10	 1.1	 0.9;
	 177	 1	 191.7	 6.8	 0	 11.58	 0	 1	 0	 220	 10	 1.1	 0.9;
	 178	 1	 2.2	 0.5	 0	 0.13	 0	 1	 0	 220	 10	 1.1	 0.9;
	 179	 1	 4.5	 1.1	 0	 12.56	 0	 1	 0	 380	 10	 1.1	 0.9;
	 180	 1	 0	-0	 0.2527	 79.80215	 0	 1	 0	 380	 10	 1.1	 0.9;
	 181	 1	 233.5	 151	 0	 35.31	 0	 1	 0	 380	 10	 1.1	 0.9;
	 182	 1	 7.91	 2.7	 0	 0.01	 0	 1	 0	 150	 10	 1.1	 0.9;
	 183	 1	 14.22	 4.7	 0	 5.58	 0	 1	 0	 220	 10	 1.1	 0.9;
	 184	 1	 0	-0	 0.379958	 52.33965	 0	 1	 0	 380	 10	 1.1	 0.9;
	 185	 1	 206.4	 21	 0	 8.55	 0	 1	 0	 150	 10	 1.1	 0.9;
	 186	 1	 0	 0	 0	 2.97	 0	 1	 0	 380	 10	 1.1	 0.9;
	 187	 1	-134.35	-6.5	 0	 3.38	 0	 1	 0	 150	 10	 1.1	 0.9;
	 188	 1	 92.7	-5.6	 0.2527	 35.620175	 0	 1	 0	 380	 10	 1.1	 0.9;
	 189	 2	 0	 0	 0	 0	 0	 1	 0	 150	 10	 1.1	 0.9;
	 190	 1	-0	-0	 0	 17.92	 0	 1	 0	 380	 1	 1.1	 0.9;
	 191	 1	 285.2	 83.5	 0	 5.6	 0	 1	 0	 220	 10	 1.1	 0.9;
	 192	 1	-0	-0	 0	 13.01	 0	 1	 0	 220	 10	 1.1	 0.9;
	 193	 1	 0	 0	 0	 1.96	 0	 1	 0	 380	 10	 1.1	 0.9;
	 194	 1	 98.61	 50.3	 0	 0.17	 0	 1	 0	 150	 10	 1.1	 0.9;
	 195	 2	 0	 0	 0	 0	 0	 1	 0	 380	 10	 1.1	 0.9;
	 196	 2	 0	 0	 0	 0	 0	 1	 0	 150	 10	 1.1	 0.9;
	 197	 1	-29.73	 23.6	 0	 11.75	 0	 1	 0	 150	 10	 1.1	 0.9;
	 198	 1	-0	 0	 0	 3.95	 0	 1	 0	 220	 10	 1.1	 0.9;
	 199	 1	 67.08	 35.5	 0	 32.32	 0	 1	 0	 220	 10	 1.1	 0.9;
	 200	 2	 0	 0	 0	 0	 0	 1	 0	 150	 10	 1.1	 0.9;
...
];

mpc_regionR1.gen = [
%	bus         Pg          Qg          Qmax        Qmin        Vg          mBase       status      Pmax        Pmin        Pc1         Pc2         Qc1min      Qc1max      Qc2min      Qc2max      ramp_agc    ramp_10     ramp_30     ramp_q      apf         
	 1	 20	 5.31	 17.76	-7.14	 1	 100	 1	 40	 0;
	 11	 60	 19.445	 56.73	-17.84	 1	 100	 1	 120	 0;
	 18	 90	 23.55	 78.79	-31.69	 1	 100	 1	 180	 0;
	 19	 200	 38.015	 129.94	-53.91	 1	 100	 1	 300	 100;
	 21	 40	 12.555	 37.43	-12.32	 1	 100	 1	 80	 0;
	 27	 200	 45.47	 137.39	-46.45	 1	 100	 1	 300	 100;
	 30	 20	 6.165	 18.61	-6.28	 1	 100	 1	 40	 0;
	 37	 133.335	 31.835	 93.16	-29.49	 1	 100	 1	 200	 66.67;
	 38	 60	 20.095	 57.41	-17.22	 1	 100	 1	 120	 0;
	 47	 90	 25.22	 80.51	-30.07	 1	 100	 1	 180	 0;
	 52	 200	 45.355	 137.29	-46.58	 1	 100	 1	 300	 100;
	 56	 40	 13.135	 38.01	-11.74	 1	 100	 1	 80	 0;
	 59	 90	 24.46	 79.69	-30.77	 1	 100	 1	 180	 0;
	 62	 40	 9.93	 34.8	-14.94	 1	 100	 1	 80	 0;
	 63	 80	 22.275	 72.02	-27.47	 1	 100	 1	 160	 0;
	 68	 266.665	 45.305	 167.72	-77.11	 1	 100	 1	 400	 133.33;
	 77	 90	 21.155	 76.43	-34.12	 1	 100	 1	 180	 0;
	 80	 40	 12.555	 37.43	-12.32	 1	 100	 1	 80	 0;
	 82	 40	 13.49	 38.36	-11.38	 1	 100	 1	 80	 0;
	 83	 60	 17.365	 54.7	-19.97	 1	 100	 1	 120	 0;
	 87	 40	 13.165	 38.05	-11.72	 1	 100	 1	 80	 0;
	 93	 20	 5.98	 18.41	-6.45	 1	 100	 1	 40	 0;
	 95	 90	 23.82	 79.1	-31.46	 1	 100	 1	 180	 0;
	 97	 200	 50.065	 142	-41.87	 1	 100	 1	 300	 100;
	 110	 333.335	 71.09	 224.4	-82.22	 1	 100	 1	 500	 166.67;
	 126	 350	 9.565	 34.47	-15.34	 1	 100	 1	 600	 100;
	 132	 350	 21.225	 76.5	-34.05	 1	 100	 1	 600	 100;
	 141	 60	 13.88	 51.25	-23.49	 1	 100	 1	 120	 0;
	 144	 200	 42.465	 134.08	-49.15	 1	 100	 1	 300	 100;
	 148	 450	 22.4	 83.58	-38.78	 1	 100	 1	 700	 200;
	 149	 90	 30.96	 86.17	-24.25	 1	 100	 1	 180	 0;
	 160	 200	 41.365	 133.02	-50.29	 1	 100	 1	 300	 100;
	 163	 40	 11.355	 36.26	-13.55	 1	 100	 1	 80	 0;
	 170	 90	 21.48	 76.75	-33.79	 1	 100	 1	 180	 0;
	 172	 60	 15.39	 52.75	-21.97	 1	 100	 1	 120	 0;
	 189	 60	 16.54	 53.88	-20.8	 1	 100	 1	 120	 0;
	 195	 200	 32.685	 124.56	-59.19	 1	 100	 1	 300	 100;
	 196	 20	 6.635	 19.07	-5.8	 1	 100	 1	 40	 0;
	 200	 40	 13.76	 38.64	-11.12	 1	 100	 1	 80	 0;
];

mpc_regionR1.branch = [
%	fbus        tbus        r           x           b           rateA       rateB       rateC       ratio       angle       status      angmin      angmax      
	 12	 102	 6e-05	 0.00056	 0	 1514	 56085	 56085	 0	 0	 1	-30	 30;
	 134	 70	 0.003409	 0.016211	 0	 1907	 1907	 1907	 0	 0	 1	-30	 30;
	 98	 70	 0.003099	 0.017969	 0	 1733	 1733	 1733	 0	 0	 1	-30	 30;
	 3	 97	 0.00089	 0.00712	 0	 1283	 4403	 4403	 0	 0	 1	-30	 30;
	 150	 110	 0.00029	 0.00298	 0	 1613	 10550	 10550	 0	 0	 1	-30	 30;
	 150	 136	 0.0003	 0.00291	 0	 1514	 10798	 10798	 0	 0	 1	-30	 30;
	 190	 123	 0.00055	 0.00666	 0	 1711	 4727	 4727	 0	 0	 1	-30	 30;
	 25	 70	 0.002169	 0.013349	 0	 457	 2336	 2336	 0	 0	 1	-30	 30;
	 75	 93	 0.019671	 0.07004	 0	 435	 435	 435	 0	 0	 1	-30	 30;
	 75	 93	 0.01812	 0.06872	 0	 445	 445	 445	 0	 0	 1	-30	 30;
	 130	 104	 0.001582	 0.00724	 0	 4263	 4263	 4263	 0	 0	 1	-30	 30;
	 130	 104	 0.001551	 0.007231	 0	 4272	 4272	 4272	 0	 0	 1	-30	 30;
	 130	 104	 0.001262	 0.00796	 0	 3920	 3920	 3920	 0	 0	 1	-30	 30;
	 120	 61	 0.0264	 0.075129	 0	 397	 397	 397	 0	 0	 1	-30	 30;
	 120	 115	 0.00824	 0.044751	 0	 695	 695	 695	 0	 0	 1	-30	 30;
	 176	 104	 0.018271	 0.070191	 0	 436	 436	 436	 0	 0	 1	-30	 30;
	 176	 104	 0.021711	 0.063129	 0	 474	 474	 474	 0	 0	 1	-30	 30;
	 176	 168	 0.013191	 0.0428	 0	 706	 706	 706	 0	 0	 1	-30	 30;
	 185	 61	 0.027631	 0.102502	 0	 298	 298	 298	 0	 0	 1	-30	 30;
	 185	 164	 0.005369	 0.052622	 0	 598	 598	 598	 0	 0	 1	-30	 30;
	 185	 164	 0.013938	 0.0534	 0	 573	 573	 573	 0	 0	 1	-30	 30;
	 185	 164	 0.01364	 0.049449	 0	 616	 616	 616	 0	 0	 1	-30	 30;
	 185	 34	 0.007991	 0.037738	 0	 819	 819	 819	 0	 0	 1	-30	 30;
	 53	 104	 0.007671	 0.04096	 0	 758	 758	 758	 0	 0	 1	-30	 30;
	 53	 104	 0.007511	 0.041769	 0	 745	 745	 745	 0	 0	 1	-30	 30;
	 53	 78	 0.004089	 0.010978	 0	 2697	 2697	 2697	 0	 0	 1	-30	 30;
	 53	 78	 0.003	 0.014769	 0	 2096	 2096	 2096	 0	 0	 1	-30	 30;
	 53	 17	 0.001351	 0.00784	 0	 3971	 3971	 3971	 0	 0	 1	-30	 30;
	 53	 23	 0.003671	 0.022089	 0	 1411	 1411	 1411	 0	 0	 1	-30	 30;
	 53	 66	 0.002378	 0.00772	 0	 3911	 3911	 3911	 0	 0	 1	-30	 30;
	 104	 17	 0.006911	 0.03268	 0	 946	 946	 946	 0	 0	 1	-30	 30;
	 104	 51	 0.00944	 0.03284	 0	 925	 925	 925	 0	 0	 1	-30	 30;
	 104	 152	 0.009831	 0.02848	 0	 1049	 1049	 1049	 0	 0	 1	-30	 30;
	 104	 23	 0.003671	 0.02092	 0	 1488	 1488	 1488	 0	 0	 1	-30	 30;
	 197	 61	 0.019378	 0.10932	 0	 285	 285	 285	 0	 0	 1	-30	 30;
	 197	 61	 0.021969	 0.107129	 0	 289	 289	 289	 0	 0	 1	-30	 30;
	 197	 115	 0.009151	 0.063249	 0	 495	 495	 495	 0	 0	 1	-30	 30;
	 197	 91	 0.029169	 0.088102	 0	 341	 341	 341	 0	 0	 1	-30	 30;
	 197	 108	 0.031351	 0.115698	 0	 264	 264	 264	 0	 0	 1	-30	 30;
	 197	 164	 0.04936	 0.182018	 0	 168	 168	 168	 0	 0	 1	-30	 30;
	 197	 144	 0.001609	 0.016889	 0	 299	 1862	 1862	 0	 0	 1	-30	 30;
	 197	 62	 0	 0.000222	 0	 142286	 142286	 142286	 0	 0	 1	-30	 30;
	 20	 200	 0.008698	 0.033591	 0	 911	 911	 911	 0	 0	 1	-30	 30;
	 121	 44	 0.01792	 0.070169	 0	 437	 437	 437	 0	 0	 1	-30	 30;
	 121	 194	 0.00308	 0.008422	 0	 299	 3523	 3523	 0	 0	 1	-30	 30;
	 121	 16	 0.002031	 0.012102	 0	 2575	 2575	 2575	 0	 0	 1	-30	 30;
	 121	 16	 0.0068	 0.03452	 0	 898	 898	 898	 0	 0	 1	-30	 30;
	 121	 83	 0.01176	 0.055871	 0	 554	 554	 554	 0	 0	 1	-30	 30;
	 96	 152	 0.04856	 0.135111	 0	 221	 221	 221	 0	 0	 1	-30	 30;
	 61	 139	 0.039289	 0.146129	 0	 209	 209	 209	 0	 0	 1	-30	 30;
	 61	 139	 0.038471	 0.148938	 0	 206	 206	 206	 0	 0	 1	-30	 30;
	 61	 76	 0.010911	 0.04116	 0	 742	 742	 742	 0	 0	 1	-30	 30;
	 139	 34	 0.002898	 0.017409	 0	 1790	 1790	 1790	 0	 0	 1	-30	 30;
	 111	 32	 0.00544	 0.051431	 0	 611	 611	 611	 0	 0	 1	-30	 30;
	 111	 116	 0.003791	 0.014342	 0	 2130	 2130	 2130	 0	 0	 1	-30	 30;
	 111	 133	 0.005969	 0.026302	 0	 1172	 1172	 1172	 0	 0	 1	-30	 30;
	 111	 106	 0.00608	 0.02572	 0	 1196	 1196	 1196	 0	 0	 1	-30	 30;
	 111	 59	 0.010818	 0.066769	 0	 260	 467	 467	 0	 0	 1	-30	 30;
	 44	 54	 0.006649	 0.024138	 0	 1262	 1262	 1262	 0	 0	 1	-30	 30;
	 44	 54	 0.007542	 0.023662	 0	 1272	 1272	 1272	 0	 0	 1	-30	 30;
	 44	 54	 0.007991	 0.036622	 0	 843	 843	 843	 0	 0	 1	-30	 30;
	 44	 54	 0.0116	 0.046018	 0	 666	 666	 666	 0	 0	 1	-30	 30;
	 91	 51	 0.011631	 0.047049	 0	 652	 652	 652	 0	 0	 1	-30	 30;
	 108	 164	 0.018822	 0.064009	 0	 474	 474	 474	 0	 0	 1	-30	 30;
	 32	 133	 0.008071	 0.049138	 0	 635	 635	 635	 0	 0	 1	-30	 30;
	 32	 106	 0.007889	 0.045502	 0	 684	 684	 684	 0	 0	 1	-30	 30;
	 32	 189	 0.009822	 0.057222	 0	 545	 545	 545	 0	 0	 1	-30	 30;
	 54	 82	 0.00656	 0.023831	 0	 1278	 1278	 1278	 0	 0	 1	-30	 30;
	 54	 82	 0.007431	 0.023351	 0	 1290	 1290	 1290	 0	 0	 1	-30	 30;
	 54	 165	 0.007391	 0.026978	 0	 1130	 1130	 1130	 0	 0	 1	-30	 30;
	 54	 94	 0.001871	 0.012142	 0	 2572	 2572	 2572	 0	 0	 1	-30	 30;
	 54	 24	 0.003969	 0.026169	 0	 1194	 1194	 1194	 0	 0	 1	-30	 30;
	 54	 52	 0.008151	 0.04664	 0	 299	 668	 668	 0	 0	 1	-30	 30;
	 187	 1	 0.00076	 0.005622	 0	 5568	 5568	 5568	 0	 0	 1	-30	 30;
	 187	 82	 0.0094	 0.035791	 0	 854	 854	 854	 0	 0	 1	-30	 30;
	 187	 173	 0.00844	 0.031031	 0	 983	 983	 983	 0	 0	 1	-30	 30;
	 187	 38	 0.00028	 0.002062	 0	 15180	 15180	 15180	 0	 0	 1	-30	 30;
	 187	 64	 0.004849	 0.030031	 0	 1039	 1039	 1039	 0	 0	 1	-30	 30;
	 187	 94	 0.00268	 0.022391	 0	 1401	 1401	 1401	 0	 0	 1	-30	 30;
	 187	 24	 0.002391	 0.025382	 0	 1239	 1239	 1239	 0	 0	 1	-30	 30;
	 16	 82	 0.017551	 0.078191	 0	 395	 395	 395	 0	 0	 1	-30	 30;
	 151	 36	 0.003849	 0.02475	 0	 591	 1262	 1262	 0	 0	 1	-30	 30;
	 151	 158	 0.0042	 0.02005	 0	 1542	 1542	 1542	 0	 0	 1	-30	 30;
	 151	 80	 0.00011	 0.000581	 0	 53419	 53419	 53419	 0	 0	 1	-30	 30;
	 151	 21	 0.000169	 0.000651	 0	 46965	 46965	 46965	 0	 0	 1	-30	 30;
	 151	 86	 0.000169	 0.000659	 0	 46430	 46430	 46430	 0	 0	 1	-30	 30;
	 60	 140	 0.00219	 0.01125	 0	 495	 2757	 2757	 0	 0	 1	-30	 30;
	 60	 201	 0.00018	 0.000599	 0	 495	 50503	 50503	 0	 0	 1	-30	 30;
	 60	 198	 0.00018	 0.000591	 0	 400	 51129	 51129	 0	 0	 1	-30	 30;
	 60	 40	 0.00019	 0.000581	 0	 438	 51675	 51675	 0	 0	 1	-30	 30;
	 60	 74	 0.000169	 0.000651	 0	 495	 46965	 46965	 0	 0	 1	-30	 30;
	 9	 46	 0.00231	 0.0138	 0	 457	 2258	 2258	 0	 0	 1	-30	 30;
	 9	 46	 0.00082	 0.003841	 0	 8043	 8043	 8043	 0	 0	 1	-30	 30;
	 9	 5	 0.00305	 0.01762	 0	 495	 1767	 1767	 0	 0	 1	-30	 30;
	 125	 117	 0.01101	 0.055469	 0	 476	 559	 559	 0	 0	 1	-30	 30;
	 125	 177	 0.009169	 0.0462	 0	 533	 671	 671	 0	 0	 1	-30	 30;
	 125	 158	 0.00201	 0.00905	 0	 3408	 3408	 3408	 0	 0	 1	-30	 30;
	 125	 48	 0.005969	 0.038841	 0	 553	 804	 804	 0	 0	 1	-30	 30;
	 125	 172	 0.00474	 0.02687	 0	 438	 1158	 1158	 0	 0	 1	-30	 30;
	 125	 122	 0.005409	 0.03438	 0	 476	 908	 908	 0	 0	 1	-30	 30;
	 125	 71	 0.005401	 0.03264	 0	 572	 955	 955	 0	 0	 1	-30	 30;
	 125	 202	 0.00311	 0.015919	 0	 610	 1948	 1948	 0	 0	 1	-30	 30;
	 125	 41	 0.00462	 0.02613	 0	 419	 1191	 1191	 0	 0	 1	-30	 30;
	 70	 28	 0.01044	 0.05187	 0	 476	 597	 597	 0	 0	 1	-30	 30;
	 70	 28	 0.01001	 0.05113	 0	 476	 607	 607	 0	 0	 1	-30	 30;
	 70	 192	 0.008331	 0.051729	 0	 533	 603	 603	 0	 0	 1	-30	 30;
	 70	 141	 0.000169	 0.00089	 0	 438	 34869	 34869	 0	 0	 1	-30	 30;
	 70	 87	 0.00214	 0.01099	 0	 495	 2822	 2822	 0	 0	 1	-30	 30;
	 46	 132	 0.004669	 0.042349	 0	 476	 742	 742	 0	 0	 1	-30	 30;
	 46	 162	 0.00139	 0.008789	 0	 419	 3550	 3550	 0	 0	 1	-30	 30;
	 46	 162	 0.000219	 0.001669	 0	 495	 18766	 18766	 0	 0	 1	-30	 30;
	 46	 5	 0.00119	 0.01063	 0	 2954	 2954	 2954	 0	 0	 1	-30	 30;
	 55	 48	 0.004169	 0.02724	 0	 514	 1147	 1147	 0	 0	 1	-30	 30;
	 55	 48	 0.004081	 0.025219	 0	 495	 1237	 1237	 0	 0	 1	-30	 30;
	 55	 8	 0.00168	 0.01039	 0	 533	 3002	 3002	 0	 0	 1	-30	 30;
	 55	 35	 0.0017	 0.01055	 0	 495	 2956	 2956	 0	 0	 1	-30	 30;
	 199	 129	 0.00139	 0.008771	 0	 495	 3557	 3557	 0	 0	 1	-30	 30;
	 199	 146	 0.000651	 0.00261	 0	 476	 11743	 11743	 0	 0	 1	-30	 30;
	 199	 146	 0.000729	 0.00256	 0	 476	 11868	 11868	 0	 0	 1	-30	 30;
	 199	 31	 0	 0.008169	 0	 400	 3867	 3867	 0	 0	 1	-30	 30;
	 199	 124	 5e-05	 0.00025	 0	 438	 123896	 123896	 0	 0	 1	-30	 30;
	 127	 177	 0.003719	 0.022669	 0	 514	 1376	 1376	 0	 0	 1	-30	 30;
	 127	 148	 0.00732	 0.042711	 0	 476	 729	 729	 0	 0	 1	-30	 30;
	 127	 148	 0.003599	 0.025331	 0	 1235	 1235	 1235	 0	 0	 1	-30	 30;
	 127	 203	 0.00494	 0.027401	 0	 533	 1135	 1135	 0	 0	 1	-30	 30;
	 117	 155	 0.0062	 0.03519	 0	 533	 885	 885	 0	 0	 1	-30	 30;
	 117	 155	 0.00739	 0.04574	 0	 438	 682	 682	 0	 0	 1	-30	 30;
	 117	 71	 0.006781	 0.034289	 0	 572	 904	 904	 0	 0	 1	-30	 30;
	 155	 68	 0.003669	 0.03205	 0	 980	 980	 980	 0	 0	 1	-30	 30;
	 155	 68	 0.002789	 0.026289	 0	 1195	 1195	 1195	 0	 0	 1	-30	 30;
	 155	 58	 0.005979	 0.031979	 0	 533	 971	 971	 0	 0	 1	-30	 30;
	 68	 140	 0.00425	 0.02132	 0	 553	 1453	 1453	 0	 0	 1	-30	 30;
	 68	 36	 0.002469	 0.015099	 0	 2065	 2065	 2065	 0	 0	 1	-30	 30;
	 68	 201	 0.004341	 0.02662	 0	 514	 1172	 1172	 0	 0	 1	-30	 30;
	 68	 74	 0.005219	 0.02287	 0	 610	 1347	 1347	 0	 0	 1	-30	 30;
	 68	 169	 0.0095	 0.04693	 0	 495	 660	 660	 0	 0	 1	-30	 30;
	 132	 5	 0.01099	 0.052909	 0	 457	 585	 585	 0	 0	 1	-30	 30;
	 132	 148	 0.004901	 0.02949	 0	 533	 1057	 1057	 0	 0	 1	-30	 30;
	 132	 105	 0.00832	 0.038531	 0	 457	 802	 802	 0	 0	 1	-30	 30;
	 132	 126	 0.003909	 0.018091	 0	 381	 1707	 1707	 0	 0	 1	-30	 30;
	 132	 77	 0.000331	 0.00189	 0	 476	 16463	 16463	 0	 0	 1	-30	 30;
	 177	 148	 0.01101	 0.05514	 0	 495	 562	 562	 0	 0	 1	-30	 30;
	 177	 166	 0.00345	 0.01925	 0	 457	 1616	 1616	 0	 0	 1	-30	 30;
	 191	 5	 0.00162	 0.00889	 0	 3496	 3496	 3496	 0	 0	 1	-30	 30;
	 191	 203	 0.00039	 0.00464	 0	 6784	 6784	 6784	 0	 0	 1	-30	 30;
	 191	 119	 0.00064	 0.010099	 0	 3122	 3122	 3122	 0	 0	 1	-30	 30;
	 140	 129	 0.003151	 0.01613	 0	 572	 1922	 1922	 0	 0	 1	-30	 30;
	 140	 129	 0.002091	 0.012409	 0	 629	 2511	 2511	 0	 0	 1	-30	 30;
	 140	 205	 0	 0.00799	 0	 3954	 3954	 3954	 0	 0	 1	-30	 30;
	 140	 101	 0	 0.00906	 0	 3487	 3487	 3487	 0	 0	 1	-30	 30;
	 140	 157	 0.000909	 0.010401	 0	 3026	 3026	 3026	 0	 0	 1	-30	 30;
	 140	 57	 0.003211	 0.016081	 0	 591	 1927	 1927	 0	 0	 1	-30	 30;
	 140	 198	 0.00314	 0.017711	 0	 457	 1757	 1757	 0	 0	 1	-30	 30;
	 140	 40	 0.00214	 0.010591	 0	 476	 2924	 2924	 0	 0	 1	-30	 30;
	 79	 71	 0.00056	 0.003169	 0	 9816	 9816	 9816	 0	 0	 1	-30	 30;
	 162	 161	 0.001719	 0.0108	 0	 514	 2889	 2889	 0	 0	 1	-30	 30;
	 129	 85	 0.0005	 0.00174	 0	 514	 17448	 17448	 0	 0	 1	-30	 30;
	 129	 124	 0.00126	 0.00587	 0	 419	 5262	 5262	 0	 0	 1	-30	 30;
	 156	 58	 0.007909	 0.03607	 0	 533	 856	 856	 0	 0	 1	-30	 30;
	 156	 157	 0.00057	 0.00457	 0	 6859	 6859	 6859	 0	 0	 1	-30	 30;
	 156	 124	 0.00132	 0.008409	 0	 400	 3711	 3711	 0	 0	 1	-30	 30;
	 5	 56	 0.003581	 0.017289	 0	 610	 1790	 1790	 0	 0	 1	-30	 30;
	 5	 105	 0.002711	 0.01526	 0	 476	 2039	 2039	 0	 0	 1	-30	 30;
	 5	 143	 0.00039	 0.006081	 0	 5184	 5184	 5184	 0	 0	 1	-30	 30;
	 5	 119	 0.00037	 0.005409	 0	 5827	 5827	 5827	 0	 0	 1	-30	 30;
	 5	 161	 0.00244	 0.013789	 0	 476	 2256	 2256	 0	 0	 1	-30	 30;
	 85	 57	 0.000349	 0.00149	 0	 533	 20641	 20641	 0	 0	 1	-30	 30;
	 56	 148	 0.00212	 0.010531	 0	 591	 2941	 2941	 0	 0	 1	-30	 30;
	 10	 118	 0.003039	 0.031151	 0	 1010	 1010	 1010	 0	 0	 1	-30	 30;
	 10	 126	 0.001831	 0.0187	 0	 1682	 1682	 1682	 0	 0	 1	-30	 30;
	 43	 84	 0.006599	 0.043169	 0	 438	 724	 724	 0	 0	 1	-30	 30;
	 43	 112	 0.006729	 0.046599	 0	 438	 671	 671	 0	 0	 1	-30	 30;
	 43	 81	 0.002159	 0.010789	 0	 476	 2871	 2871	 0	 0	 1	-30	 30;
	 43	 22	 0.0022	 0.01057	 0	 476	 2926	 2926	 0	 0	 1	-30	 30;
	 43	 27	 0.003461	 0.02049	 0	 1521	 1521	 1521	 0	 0	 1	-30	 30;
	 183	 19	 0.00311	 0.019469	 0	 495	 1603	 1603	 0	 0	 1	-30	 30;
	 183	 18	 0.01064	 0.065969	 0	 473	 473	 473	 0	 0	 1	-30	 30;
	 28	 8	 0.003539	 0.020479	 0	 495	 1520	 1520	 0	 0	 1	-30	 30;
	 28	 35	 0.00357	 0.020719	 0	 495	 1503	 1503	 0	 0	 1	-30	 30;
	 28	 84	 0.00275	 0.013831	 0	 457	 2240	 2240	 0	 0	 1	-30	 30;
	 28	 112	 0.0028	 0.013531	 0	 457	 2287	 2287	 0	 0	 1	-30	 30;
	 148	 126	 0.005151	 0.04851	 0	 648	 648	 648	 0	 0	 1	-30	 30;
	 148	 192	 0.005401	 0.025281	 0	 533	 1222	 1222	 0	 0	 1	-30	 30;
	 148	 192	 0.0055	 0.02475	 0	 514	 1246	 1246	 0	 0	 1	-30	 30;
	 166	 122	 0.00093	 0.00538	 0	 438	 5786	 5786	 0	 0	 1	-30	 30;
	 158	 48	 0.010331	 0.061849	 0	 504	 504	 504	 0	 0	 1	-30	 30;
	 103	 81	 0.00686	 0.032771	 0	 476	 944	 944	 0	 0	 1	-30	 30;
	 103	 22	 0.007	 0.032081	 0	 476	 962	 962	 0	 0	 1	-30	 30;
	 118	 92	 0.007729	 0.038099	 0	 813	 813	 813	 0	 0	 1	-30	 30;
	 92	 19	 0.006581	 0.035281	 0	 572	 881	 881	 0	 0	 1	-30	 30;
	 92	 19	 0.003711	 0.02651	 0	 533	 1181	 1181	 0	 0	 1	-30	 30;
	 92	 95	 0.00482	 0.021979	 0	 572	 1404	 1404	 0	 0	 1	-30	 30;
	 92	 95	 0.003979	 0.026099	 0	 533	 1197	 1197	 0	 0	 1	-30	 30;
	 48	 202	 0.0038	 0.017271	 0	 553	 1787	 1787	 0	 0	 1	-30	 30;
	 48	 170	 0.00626	 0.03626	 0	 629	 859	 859	 0	 0	 1	-30	 30;
	 192	 18	 0.00538	 0.02588	 0	 572	 1195	 1195	 0	 0	 1	-30	 30;
	 192	 18	 0.005479	 0.025341	 0	 553	 1219	 1219	 0	 0	 1	-30	 30;
	 2	 69	 0.00134	 0.01235	 0	 1218	 2543	 2543	 0	 0	 1	-30	 30;
	 2	 14	 0.00127	 0.01399	 0	 1349	 2249	 2249	 0	 0	 1	-30	 30;
	 2	 97	 0.00142	 0.01374	 0	 1349	 2287	 2287	 0	 0	 1	-30	 30;
...
];

mpc_regionR1.gencost = [
%	2           startup     shutdown    n           c(n-1)...c0 
	 2	 0	 0	 3	 0	 45.259135	 0;
	 2	 0	 0	 3	 0	 28.14515	 0;
	 2	 0	 0	 3	 0	 36.911222	 0;
	 2	 0	 0	 3	 0	 56.862119	 0;
	 2	 0	 0	 3	 0	 39.860505	 0;
	 2	 0	 0	 3	 0	 46.754235	 0;
	 2	 0	 0	 3	 0	 15.860848	 0;
	 2	 0	 0	 3	 0	 30.853594	 0;
	 2	 0	 0	 3	 0	 35.469484	 0;
	 2	 0	 0	 3	 0	 36.547352	 0;
	 2	 0	 0	 3	 0	 40.374446	 0;
	 2	 0	 0	 3	 0	 24.969144	 0;
	 2	 0	 0	 3	 0	 46.758357	 0;
	 2	 0	 0	 3	 0	 34.308365	 0;
	 2	 0	 0	 3	 0	 15.631872	 0;
	 2	 0	 0	 3	 0	 27.291461	 0;
	 2	 0	 0	 3	 0	 20.344902	 0;
	 2	 0	 0	 3	 0	 50.260292	 0;
	 2	 0	 0	 3	 0	 51.061655	 0;
	 2	 0	 0	 3	 0	 23.210079	 0;
	 2	 0	 0	 3	 0	 34.844146	 0;
	 2	 0	 0	 3	 0	 26.704298	 0;
	 2	 0	 0	 3	 0	 39.003024	 0;
	 2	 0	 0	 3	 0	 24.597539	 0;
	 2	 0	 0	 3	 0	 17.960693	 0;
	 2	 0	 0	 3	 0	 13.808633	 0;
	 2	 0	 0	 3	 0	 28.044308	 0;
	 2	 0	 0	 3	 0	 92.234145	 0;
	 2	 0	 0	 3	 0	 49.10551	 0;
	 2	 0	 0	 3	 0	 17.676121	 0;
	 2	 0	 0	 3	 0	 24.5266	 0;
	 2	 0	 0	 3	 0	 25.228343	 0;
	 2	 0	 0	 3	 0	 29.705672	 0;
	 2	 0	 0	 3	 0	 31.551462	 0;
	 2	 0	 0	 3	 0	 17.737296	 0;
	 2	 0	 0	 3	 0	 31.796323	 0;
	 2	 0	 0	 3	 0	 15.642634	 0;
	 2	 0	 0	 3	 0	 25.985405	 0;
	 2	 0	 0	 3	 0	 117.35339	 0;
];


% -------------------- mpc_regionR2 --------------------

mpc_regionR2.version = '2';
mpc_regionR2.baseMVA = 100.0000;
mpc_regionR2.bus = [
%	bus_i       type        Pd          Qd          Gs          Bs          area        Vm          Va          baseKV      zone        Vmax        Vmin        
	 1	 1	 59.67	 26.7	 0	 12.84	 0	 1	 0	 220	 4	 1.1	 0.9;
	 2	 1	 6.91	-4.6	 0	 5.75	 0	 1	 0	 220	 4	 1.1	 0.9;
	 3	 1	 191.2	-3.4	 0	 19.21	 0	 1	 0	 220	 4	 1.1	 0.9;
	 4	 2	 0	 0	 0	 0	 0	 1	 0	 380	 4	 1.1	 0.9;
	 5	 1	 36.74	 10.3	 0	 8.1	 0	 1	 0	 220	 4	 1.1	 0.9;
	 6	 1	-0	 0	 0	 17.44	 0	 1	 0	 220	 4	 1.1	 0.9;
	 7	 1	 110.8	-8.8	 0	 3.15	 0	 1	 0	 220	 4	 1.1	 0.9;
	 8	 1	 40.94	 19.2	 0	 5.2	 0	 1	 0	 220	 4	 1.1	 0.9;
	 9	 1	 36.54	 8.4	 0	 6.58	 0	 1	 0	 220	 4	 1.1	 0.9;
	 10	 2	 0	 0	 0	 0	 0	 1	 0	 380	 4	 1.1	 0.9;
	 11	 1	 94.2	 5.5	 0	 6.51	 0	 1	 0	 220	 4	 1.1	 0.9;
	 12	 1	 43.75	 12.4	 0	 9.35	 0	 1	 0	 220	 4	 1.1	 0.9;
	 13	 1	 90.7	 5.8	 0	 4.1	 0	 1	 0	 220	 4	 1.1	 0.9;
	 14	 1	-0	 0	 0	 75.38	 0	 1	 0	 380	 4	 1.1	 0.9;
	 15	 1	 215.2	-7.6	 0	 1.24	 0	 1	 0	 220	 4	 1.1	 0.9;
	 16	 1	 403.9	-0.1	 0	 143.1	 0	 1	 0	 380	 4	 1.1	 0.9;
	 17	 1	-40.54	 9.3	 0	 3.05	 0	 1	 0	 220	 4	 1.1	 0.9;
	 18	 2	 0	 0	 0	 0	 0	 1	 0	 220	 4	 1.1	 0.9;
	 19	 2	 0	 0	 0	 0	 0	 1	 0	 220	 4	 1.1	 0.9;
	 20	 1	 124.8	 7.9	 0	 48.99	 0	 1	 0	 380	 4	 1.1	 0.9;
	 21	 1	 202	 34.1	 0	 1.94	 0	 1	 0	 220	 4	 1.1	 0.9;
	 22	 1	-0	 0	 0	 2.13	 0	 1	 0	 220	 4	 1.1	 0.9;
	 23	 2	 0	 0	 0	 0	 0	 1	 0	 220	 4	 1.1	 0.9;
	 24	 1	 110.1	 2	 0	 13.85	 0	 1	 0	 220	 4	 1.1	 0.9;
	 25	 1	 0	 0	 0	 1.44	 0	 1	 0	 220	 4	 1.1	 0.9;
	 26	 1	 95.61	 8.6	 0	 3.48	 0	 1	 0	 220	 4	 1.1	 0.9;
	 27	 1	 117.5	-3	 0	 5.38	 0	 1	 0	 220	 4	 1.1	 0.9;
	 28	 1	 142.8	-6.4	 0	 12.36	 0	 1	 0	 220	 4	 1.1	 0.9;
	 29	 1	 0	-0	 0	 16.62	 0	 1	 0	 380	 4	 1.1	 0.9;
	 30	 1	 35.14	 1.8	 0	 6.12	 0	 1	 0	 220	 4	 1.1	 0.9;
	 31	 1	 22.22	 5.9	 0	 10.28	 0	 1	 0	 220	 4	 1.1	 0.9;
	 32	 2	 0	 0	 0	 0	 0	 1	 0	 380	 4	 1.1	 0.9;
	 33	 1	 76.28	 2.9	 0	 7.28	 0	 1	 0	 220	 4	 1.1	 0.9;
	 34	 1	 30.93	 2.8	 0	 2.11	 0	 1	 0	 220	 4	 1.1	 0.9;
	 35	 2	 0	 0	 0	 0	 0	 1	 0	 220	 4	 1.1	 0.9;
	 36	 1	 0	-0	 0	 20.5	 0	 1	 0	 380	 4	 1.1	 0.9;
	 37	 1	 33.04	 5.6	 0	 14.55	 0	 1	 0	 220	 4	 1.1	 0.9;
	 38	 2	 0	 0	 0	 0	 0	 1	 0	 220	 4	 1.1	 0.9;
	 39	 2	 0	 0	 0	 0	 0	 1	 0	 220	 4	 1.1	 0.9;
	 40	 2	 0	 0	 0	 0	 0	 1	 0	 380	 4	 1.1	 0.9;
	 41	 1	 189.4	 25.8	 0	 3.62	 0	 1	 0	 220	 4	 1.1	 0.9;
	 42	 1	 241	 32.3	 0	 34.74	 0	 1	 0	 220	 4	 1.1	 0.9;
	 43	 1	 51.96	 9.4	 0	 42.51	 0	 1	 0	 380	 4	 1.1	 0.9;
	 44	 1	 31.64	 7.5	 0	 21.91	 0	 1	 0	 220	 4	 1.1	 0.9;
	 45	 1	 37.24	 7.1	 0	 1.07	 0	 1	 0	 220	 4	 1.1	 0.9;
	 46	 1	 19.92	 7.4	 0	 17.28	 0	 1	 0	 220	 5	 1.1	 0.9;
	 47	 1	 0	 0	 0	 2.47	 0	 1	 0	 220	 4	 1.1	 0.9;
	 48	 1	 493.4	 53.5	 0	 58.09	 0	 1	 0	 380	 4	 1.1	 0.9;
	 49	 1	 272.3	 58.5	 0	 23.57	 0	 1	 0	 380	 4	 1.1	 0.9;
	 50	 1	 0	 0	 0	 20.96	 0	 1	 0	 220	 4	 1.1	 0.9;
	 51	 1	 115	-4.5	 0	 15.05	 0	 1	 0	 220	 4	 1.1	 0.9;
	 52	 1	-0	-0	 0	 16.4	 0	 1	 0	 380	 1	 1.1	 0.9;
	 53	 1	-0	-0	 0	 17.92	 0	 1	 0	 380	 4	 1.1	 0.9;
	 54	 1	 50.36	-36.2	 0	 1.25	 0	 1	 0	 220	 4	 1.1	 0.9;
	 55	 1	 16.32	 7.6	 0	 3.15	 0	 1	 0	 220	 4	 1.1	 0.9;
	 56	 1	 0	-0	 0	 83.96	 0	 1	 0	 380	 4	 1.1	 0.9;
	 57	 1	 0	 0	 0	 3.91	 0	 1	 0	 220	 4	 1.1	 0.9;
	 58	 2	 0	 0	 0	 0	 0	 1	 0	 220	 4	 1.1	 0.9;
	 59	 1	 0	-0	 0	 13.51	 0	 1	 0	 380	 1	 1.1	 0.9;
	 60	 2	 0	 0	 0	 0	 0	 1	 0	 220	 4	 1.1	 0.9;
	 61	 1	 42.55	 17.6	 0	 17.28	 0	 1	 0	 220	 5	 1.1	 0.9;
	 62	 1	 295.4	 42	 0	 0.83	 0	 1	 0	 220	 4	 1.1	 0.9;
	 63	 2	 0	 0	 0	 0	 0	 1	 0	 220	 4	 1.1	 0.9;
	 64	 1	 68.78	 13	 0	 10.45	 0	 1	 0	 220	 4	 1.1	 0.9;
	 65	 1	 51.36	-0.7	 0	 0.57	 0	 1	 0	 220	 4	 1.1	 0.9;
	 66	 1	 93.9	 10.95	 0	 4.98	 0	 1	 0	 220	 4	 1.1	 0.9;
	 67	 1	-24.93	 11.8	 0	 3.51	 0	 1	 0	 220	 4	 1.1	 0.9;
	 68	 1	-0	 0	 0	 17.64	 0	 1	 0	 380	 4	 1.1	 0.9;
	 69	 1	 123.9	 32.6	 0	 1.52	 0	 1	 0	 220	 4	 1.1	 0.9;
	 70	 1	 220.7	-14.8	 0	 125.52	 0	 1	 0	 380	 4	 1.1	 0.9;
	 71	 2	 0	 0	 0	 0	 0	 1	 0	 380	 4	 1.1	 0.9;
	 72	 2	 0	 0	 0	 0	 0	 1	 0	 220	 4	 1.1	 0.9;
	 73	 1	-0	 0	 0	 3.81	 0	 1	 0	 220	 4	 1.1	 0.9;
	 74	 2	 0	 0	 0	 0	 0	 1	 0	 220	 4	 1.1	 0.9;
	 75	 1	 0	-0	 0	 18.66	 0	 1	 0	 380	 1	 1.1	 0.9;
	 76	 1	 193	 17.6	 0	 4.74	 0	 1	 0	 220	 4	 1.1	 0.9;
	 77	 2	 0	 0	 0	 0	 0	 1	 0	 220	 4	 1.1	 0.9;
	 78	 1	 0	-0	 0	 5.9	 0	 1	 0	 220	 4	 1.1	 0.9;
	 79	 1	-0	 0	 0	 43.44	 0	 1	 0	 380	 4	 1.1	 0.9;
	 80	 1	-0	 0	 0	 38.49	 0	 1	 0	 380	 4	 1.1	 0.9;
	 81	 1	 138.2	 21.3	 0	 2.33	 0	 1	 0	 220	 4	 1.1	 0.9;
	 82	 1	 183.8	 2.2	 0	 2.98	 0	 1	 0	 220	 4	 1.1	 0.9;
	 83	 2	 0	 0	 0	 0	 0	 1	 0	 220	 4	 1.1	 0.9;
	 84	 1	 210.8	-0.7	 0	 4.14	 0	 1	 0	 220	 4	 1.1	 0.9;
	 85	 1	 185	 43.6	 0	 6.3	 0	 1	 0	 220	 4	 1.1	 0.9;
	 86	 1	-0	 0	 0	 0.95	 0	 1	 0	 220	 4	 1.1	 0.9;
	 87	 1	 88.3	 2.8	 0	 5.21	 0	 1	 0	 220	 4	 1.1	 0.9;
	 88	 1	 10.21	-3.2	 0	 5.15	 0	 1	 0	 220	 4	 1.1	 0.9;
	 89	 2	 0	 0	 0	 0	 0	 1	 0	 220	 4	 1.1	 0.9;
	 90	 2	 0	 0	 0	 0	 0	 1	 0	 220	 4	 1.1	 0.9;
	 91	 1	 46.25	 13.1	 0	 1.29	 0	 1	 0	 220	 4	 1.1	 0.9;
	 92	 1	 23.4	 8.38	 0	 1.07	 0	 1	 0	 220	 4	 1.1	 0.9;
	 93	 1	-11.81	-12	 0	 19.39	 0	 1	 0	 220	 4	 1.1	 0.9;
	 94	 1	 24.33	 5.8	 0	 13.48	 0	 1	 0	 220	 4	 1.1	 0.9;
	 95	 1	 143.2	 5.9	 0	 5.79	 0	 1	 0	 220	 4	 1.1	 0.9;
	 96	 2	 0	 0	 0	 0	 0	 1	 0	 220	 4	 1.1	 0.9;
	 97	 1	 66.07	 12.5	 0	 2.08	 0	 1	 0	 220	 4	 1.1	 0.9;
	 98	 1	 21.02	 8	 0	 13.14	 0	 1	 0	 380	 4	 1.1	 0.9;
	 99	 1	 57.06	 11.9	 0	 1.68	 0	 1	 0	 220	 4	 1.1	 0.9;
	 100	 1	 88.4	-5.9	 0	 3.32	 0	 1	 0	 220	 4	 1.1	 0.9;
	 101	 2	 0	 0	 0	 0	 0	 1	 0	 220	 4	 1.1	 0.9;
	 102	 1	 38.04	 3.4	 0	 3.43	 0	 1	 0	 220	 4	 1.1	 0.9;
	 103	 1	 131.6	 33.8	 0	 6.55	 0	 1	 0	 220	 4	 1.1	 0.9;
	 104	 1	-0	 0	 0	 1.87	 0	 1	 0	 220	 4	 1.1	 0.9;
	 105	 2	 0	 0	 0	 0	 0	 1	 0	 380	 4	 1.1	 0.9;
	 106	 1	 0	-0	 0	 3.66	 0	 1	 0	 220	 4	 1.1	 0.9;
	 107	 1	 49.86	 14.1	 0	 11.33	 0	 1	 0	 220	 4	 1.1	 0.9;
	 108	 1	 78.49	 18.5	 0	 6.91	 0	 1	 0	 220	 4	 1.1	 0.9;
	 109	 1	 0	-0	 0	 5.96	 0	 1	 0	 220	 4	 1.1	 0.9;
	 110	 1	 57.06	 13.3	 0	 19.18	 0	 1	 0	 220	 4	 1.1	 0.9;
	 111	 1	-57.46	-30.3	 0	 5.4	 0	 1	 0	 220	 4	 1.1	 0.9;
	 112	 2	 0	 0	 0	 0	 0	 1	 0	 220	 4	 1.1	 0.9;
	 113	 1	 21.02	 12.4	 0	 2.96	 0	 1	 0	 220	 4	 1.1	 0.9;
	 114	 2	 0	 0	 0	 0	 0	 1	 0	 220	 4	 1.1	 0.9;
	 115	 1	 69.48	 19.7	 0	 22.1	 0	 1	 0	 220	 4	 1.1	 0.9;
	 116	 2	 0	 0	 0	 0	 0	 1	 0	 220	 4	 1.1	 0.9;
	 117	 1	 0	-0	 0	 2.44	 0	 1	 0	 220	 4	 1.1	 0.9;
	 118	 1	-0	 0	 0	 86.73	 0	 1	 0	 380	 5	 1.1	 0.9;
	 119	 1	 42.75	 4	 0	 5.41	 0	 1	 0	 220	 4	 1.1	 0.9;
	 120	 1	 55.46	 14.1	 0	 0.92	 0	 1	 0	 220	 4	 1.1	 0.9;
	 121	 1	 53.86	-15.3	 0	 2.87	 0	 1	 0	 220	 4	 1.1	 0.9;
	 122	 1	 159.4	 28.4	 0	 15.17	 0	 1	 0	 220	 4	 1.1	 0.9;
	 123	 1	 0	-0	 0	 24.38	 0	 1	 0	 380	 4	 1.1	 0.9;
	 124	 1	 118.4	 7.1	 0	 11.11	 0	 1	 0	 220	 4	 1.1	 0.9;
	 125	 1	 62.17	 0.7	 0	 5.98	 0	 1	 0	 220	 4	 1.1	 0.9;
	 126	 1	 328.9	-9.3	 0	 28.37	 0	 1	 0	 380	 4	 1.1	 0.9;
	 127	 1	 52.36	 7.4	 0	 26.39	 0	 1	 0	 220	 4	 1.1	 0.9;
	 128	 1	 0	 0	 0	 40.86	 0	 1	 0	 380	 4	 1.1	 0.9;
	 129	 2	 0	 0	 0	 0	 0	 1	 0	 220	 4	 1.1	 0.9;
	 130	 1	-0	 0	 0	 0.34	 0	 1	 0	 380	 4	 1.1	 0.9;
	 131	 1	 184.88	-21.11	 0	 39.26	 0	 1	 0	 220	 4	 1.1	 0.9;
	 132	 2	 0	 0	 0	 0	 0	 1	 0	 380	 4	 1.1	 0.9;
	 133	 2	 0	 0	 0	 0	 0	 1	 0	 220	 4	 1.1	 0.9;
	 134	 1	-0	 0	 0	 0	 0	 1	 0	 220	 4	 1.1	 0.9;
	 135	 1	 55.46	 15.7	 0	 13.46	 0	 1	 0	 220	 4	 1.1	 0.9;
	 136	 1	 0	-0	 0	 46.28	 0	 1	 0	 380	 4	 1.1	 0.9;
	 137	 1	 94.5	-27.8	 0	 5.52	 0	 1	 0	 220	 4	 1.1	 0.9;
	 138	 1	-0	-0	 0	 37.99	 0	 1	 0	 380	 4	 1.1	 0.9;
	 139	 1	 46.35	 14.9	 0	 20.62	 0	 1	 0	 220	 4	 1.1	 0.9;
	 140	 1	 0	-0	 0	 3.1	 0	 1	 0	 220	 1	 1.1	 0.9;
	 141	 1	 115.4	 31	 0	 28.85	 0	 1	 0	 220	 4	 1.1	 0.9;
	 142	 1	 67.08	 25.2	 0	 8.11	 0	 1	 0	 220	 4	 1.1	 0.9;
	 143	 1	 49.45	 6.5	 0	 3.53	 0	 1	 0	 220	 4	 1.1	 0.9;
	 144	 2	 0	 0	 0	 0	 0	 1	 0	 380	 4	 1.1	 0.9;
	 145	 1	 44.35	 5.1	 0	 4	 0	 1	 0	 220	 4	 1.1	 0.9;
	 146	 1	 178.9	 9.1	 0	 15.71	 0	 1	 0	 220	 4	 1.1	 0.9;
	 147	 1	 101.9	 20	 0	 22.64	 0	 1	 0	 220	 4	 1.1	 0.9;
	 148	 2	 0	 0	 0	 0	 0	 1	 0	 380	 4	 1.1	 0.9;
	 149	 1	 0	-0	 0	 9.68	 0	 1	 0	 220	 4	 1.1	 0.9;
	 150	 2	 0	 0	 0	 0	 0	 1	 0	 380	 4	 1.1	 0.9;
	 151	 1	 149.9	-0	 0	 28.38	 0	 1	 0	 380	 4	 1.1	 0.9;
	 152	 1	 295.2	 39.3	 0	 7.3	 0	 1	 0	 220	 4	 1.1	 0.9;
	 153	 2	 0	 0	 0	 0	 0	 1	 0	 380	 4	 1.1	 0.9;
	 154	 1	 226.7	 39.3	 0	 0.99	 0	 1	 0	 220	 4	 1.1	 0.9;
	 155	 2	 0	 0	 0	 0	 0	 1	 0	 220	 4	 1.1	 0.9;
	 156	 1	 124.5	-6	 0	 1.91	 0	 1	 0	 220	 4	 1.1	 0.9;
	 157	 1	 191.2	 16.4	 0	 17.99	 0	 1	 0	 380	 4	 1.1	 0.9;
	 158	 1	 131.5	 12.9	 0	 18.7	 0	 1	 0	 220	 4	 1.1	 0.9;
	 159	 2	 0	 0	 0	 0	 0	 1	 0	 220	 4	 1.1	 0.9;
	 160	 2	 0	 0	 0	 0	 0	 1	 0	 220	 4	 1.1	 0.9;
	 161	 2	 0	 0	 0	 0	 0	 1	 0	 220	 4	 1.1	 0.9;
	 162	 2	 0	 0	 0	 0	 0	 1	 0	 220	 4	 1.1	 0.9;
	 163	 1	 72.38	 23	 0	 0.28	 0	 1	 0	 220	 4	 1.1	 0.9;
	 164	 2	 0	 0	 0	 0	 0	 1	 0	 380	 5	 1.1	 0.9;
	 165	 1	 103.6	 4.69	 0	 36.68	 0	 1	 0	 220	 4	 1.1	 0.9;
];

mpc_regionR2.gen = [
%	bus         Pg          Qg          Qmax        Qmin        Vg          mBase       status      Pmax        Pmin        Pc1         Pc2         Qc1min      Qc1max      Qc2min      Qc2max      ramp_agc    ramp_10     ramp_30     ramp_q      apf         
	 4	 1066.665	 231.27	 721.25	-258.71	 1	 100	 1	 1600	 533.33;
	 10	 1333.335	 251.75	 864.47	-360.97	 1	 100	 1	 2000	 666.67;
	 18	 180	 47.695	 158.2	-62.81	 1	 100	 1	 360	 0;
	 19	 450	 34.615	 108.35	-39.12	 1	 100	 1	 700	 200;
	 23	 533.335	 93.45	 338.66	-151.76	 1	 100	 1	 800	 266.67;
	 32	 38.65	 0.54	 2.05	-0.97	 1	 100	 1	 100	-22.7;
	 35	 24.37	 0.58	 2.23	-1.07	 1	 100	 1	 100	-51.26;
	 38	 204.545	-0.875	 134.54	-136.29	 1	 100	 1	 409.09	 0;
	 39	 117.26	 0.53	 78.13	-77.07	 1	 100	 1	 234.52	 0;
	 40	 1333.335	 235.545	 848.76	-377.67	 1	 100	 1	 2000	 666.67;
	 58	-8.935	 2.34	 19.8	-15.12	 1	 100	 1	 100	-117.87;
	 60	 33.045	 0.565	 22.35	-21.22	 1	 100	 1	 66.09	 0;
	 63	 3.1	 0.565	 2.18	-1.05	 1	 100	 1	 6.2	 0;
	 71	 333.335	 69.685	 223.07	-83.7	 1	 100	 1	 500	 166.67;
	 72	 17.895	 0.49	 1.83	-0.85	 1	 100	 1	 100	-64.21;
	 74	 15	 4.48	 16.93	-7.97	 1	 100	 1	 100	-70;
	 77	 30.12	 0.625	 20.49	-19.24	 1	 100	 1	 60.24	 0;
	 83	 150	 48.835	 140.98	-43.31	 1	 100	 1	 300	 0;
	 89	 60	 17.1	 54.46	-20.26	 1	 100	 1	 120	 0;
	 90	 210	 53.185	 182.2	-75.83	 1	 100	 1	 420	 0;
	 96	-79.265	 0.615	 2.29	-1.06	 1	 100	 1	 100	-258.53;
	 101	 80	 19.835	 69.67	-30	 1	 100	 1	 160	 0;
	 105	 333.335	 67.605	 220.75	-85.54	 1	 100	 1	 500	 166.67;
	 112	 40	 11.675	 36.58	-13.23	 1	 100	 1	 80	 0;
	 114	 40	 10.51	 35.43	-14.41	 1	 100	 1	 80	 0;
	 116	 2.66	 0.585	 2.24	-1.07	 1	 100	 1	 5.32	 0;
	 129	 533.335	 91.89	 337.04	-153.26	 1	 100	 1	 800	 266.67;
	 132	 50.255	 0.31	 33.57	-32.95	 1	 100	 1	 100.51	 0;
	 133	 40	 12.695	 37.59	-12.2	 1	 100	 1	 80	 0;
	 144	 6.45	 0.605	 4.78	-3.57	 1	 100	 1	 12.9	 0;
	 148	 1066.665	 207.95	 698.07	-282.17	 1	 100	 1	 1600	 533.33;
	 150	 473.245	 77.15	 291.71	-137.41	 1	 100	 1	 709.87	 236.62;
	 153	 51.515	 0.38	 34.48	-33.72	 1	 100	 1	 103.03	 0;
	 155	 180	 62.765	 173.2	-47.67	 1	 100	 1	 360	 0;
	 159	 48.99	 0.24	 32.66	-32.18	 1	 100	 1	 97.98	 0;
	 160	 333.335	 67.175	 220.49	-86.14	 1	 100	 1	 500	 166.67;
	 161	 23.435	 0.58	 2.23	-1.07	 1	 100	 1	 100	-53.13;
	 162	-10	 0.685	 11.6	-10.23	 1	 100	 1	 100	-120;
	 164	-170.935	 62.92	 175	-49.16	 1	 100	 1	 100	-441.87;
];

mpc_regionR2.branch = [
%	fbus        tbus        r           x           b           rateA       rateB       rateC       ratio       angle       status      angmin      angmax      
	 140	 133	 0.00374	 0.02095	 0	 800	 1485	 1485	 0	 0	 1	-30	 30;
	 59	 157	 0.00036	 0.00485	 0	 6495	 6495	 6495	 0	 0	 1	-30	 30;
	 59	 118	 0.00042	 0.00415	 0	 7573	 7573	 7573	 0	 0	 1	-30	 30;
	 52	 29	 0.00051	 0.00614	 0	 5127	 5127	 5127	 0	 0	 1	-30	 30;
	 52	 118	 0.00043	 0.00406	 0	 7737	 7737	 7737	 0	 0	 1	-30	 30;
	 75	 79	 0.00057	 0.0071	 0	 1613	 4435	 4435	 0	 0	 1	-30	 30;
	 75	 118	 0.00057	 0.00697	 0	 1613	 4517	 4517	 0	 0	 1	-30	 30;
	 66	 84	 0.001659	 0.009091	 0	 3419	 3419	 3419	 0	 0	 1	-30	 30;
	 66	 116	 0.00439	 0.03324	 0	 381	 943	 943	 0	 0	 1	-30	 30;
	 103	 108	 0.00586	 0.02574	 0	 476	 1197	 1197	 0	 0	 1	-30	 30;
	 103	 111	 0.00556	 0.020211	 0	 591	 1507	 1507	 0	 0	 1	-30	 30;
	 94	 44	 0.00026	 0.001159	 0	 553	 26594	 26594	 0	 0	 1	-30	 30;
	 44	 129	 0.000599	 0.002419	 0	 591	 12676	 12676	 0	 0	 1	-30	 30;
	 94	 122	 0.000271	 0.000979	 0	 31096	 31096	 31096	 0	 0	 1	-30	 30;
	 45	 113	 0.001841	 0.00738	 0	 4153	 4153	 4153	 0	 0	 1	-30	 30;
	 45	 55	 0.002849	 0.008979	 0	 3354	 3354	 3354	 0	 0	 1	-30	 30;
	 37	 109	 0.007281	 0.035729	 0	 438	 867	 867	 0	 0	 1	-30	 30;
	 35	 109	 0.001919	 0.00945	 0	 438	 3276	 3276	 0	 0	 1	-30	 30;
	 12	 19	 0.016169	 0.11936	 0	 263	 263	 263	 0	 0	 1	-30	 30;
	 12	 22	 0.00226	 0.014789	 0	 419	 2112	 2112	 0	 0	 1	-30	 30;
	 150	 68	 0.00099	 0.0121	 0	 1086	 2602	 2602	 0	 0	 1	-30	 30;
	 150	 36	 0	 0.01881	 0	 1119	 1680	 1680	 0	 0	 1	-30	 30;
	 150	 144	 0.00143	 0.0163	 0	 1185	 1931	 1931	 0	 0	 1	-30	 30;
	 150	 136	 0.00057	 0.00562	 0	 1119	 5592	 5592	 0	 0	 1	-30	 30;
	 150	 136	 0.00055	 0.00572	 0	 1185	 5497	 5497	 0	 0	 1	-30	 30;
	 150	 123	 0.00057	 0.00658	 0	 1448	 4783	 4783	 0	 0	 1	-30	 30;
	 150	 98	 0.00075	 0.0082	 0	 1251	 3837	 3837	 0	 0	 1	-30	 30;
	 150	 10	 0.00253	 0.02153	 0	 1316	 1458	 1458	 0	 0	 1	-30	 30;
	 40	 105	 0.00197	 0.01719	 0	 1119	 1826	 1826	 0	 0	 1	-30	 30;
	 40	 32	 0.00114	 0.01237	 0	 1382	 2543	 2543	 0	 0	 1	-30	 30;
	 40	 70	 0.00314	 0.02868	 0	 1095	 1095	 1095	 0	 0	 1	-30	 30;
	 40	 16	 0.00294	 0.03326	 0	 947	 947	 947	 0	 0	 1	-30	 30;
	 40	 16	 0.00288	 0.0308	 0	 1022	 1022	 1022	 0	 0	 1	-30	 30;
	 40	 10	 0.00088	 0.02821	 0	 1086	 1120	 1120	 0	 0	 1	-30	 30;
	 96	 37	 0.01524	 0.064091	 0	 480	 480	 480	 0	 0	 1	-30	 30;
	 152	 92	 0.000831	 0.0052	 0	 514	 5999	 5999	 0	 0	 1	-30	 30;
	 92	 161	 0.00164	 0.0103	 0	 495	 3029	 3029	 0	 0	 1	-30	 30;
	 165	 23	 9.1e-05	 0.000289	 0	 104253	 104253	 104253	 0	 0	 1	-30	 30;
	 165	 23	 9.1e-05	 0.000271	 0	 110496	 110496	 110496	 0	 0	 1	-30	 30;
	 165	 127	 0.0003	 0.002719	 0	 476	 11548	 11548	 0	 0	 1	-30	 30;
	 165	 131	 0.00049	 0.002091	 0	 14708	 14708	 14708	 0	 0	 1	-30	 30;
	 165	 1	 0.000159	 0.001461	 0	 572	 21494	 21494	 0	 0	 1	-30	 30;
	 24	 8	 0.00019	 0.000539	 0	 55271	 55271	 55271	 0	 0	 1	-30	 30;
	 8	 131	 0.000169	 0.00061	 0	 514	 49903	 49903	 0	 0	 1	-30	 30;
	 102	 162	 0.003789	 0.01805	 0	 1713	 1713	 1713	 0	 0	 1	-30	 30;
	 102	 26	 0.00069	 0.00389	 0	 7996	 7996	 7996	 0	 0	 1	-30	 30;
	 80	 32	 0.00155	 0.01573	 0	 1283	 1999	 1999	 0	 0	 1	-30	 30;
	 80	 151	 0.00031	 0.00274	 0	 1316	 11456	 11456	 0	 0	 1	-30	 30;
	 80	 70	 0.00047	 0.00563	 0	 1185	 5592	 5592	 0	 0	 1	-30	 30;
	 80	 56	 0.00066	 0.00721	 0	 1152	 4363	 4363	 0	 0	 1	-30	 30;
	 139	 84	 0.00326	 0.016711	 0	 1856	 1856	 1856	 0	 0	 1	-30	 30;
	 139	 42	 0.002479	 0.01262	 0	 629	 2457	 2457	 0	 0	 1	-30	 30;
	 139	 42	 0.00243	 0.01286	 0	 610	 2414	 2414	 0	 0	 1	-30	 30;
	 139	 74	 0.004521	 0.02306	 0	 476	 1345	 1345	 0	 0	 1	-30	 30;
	 139	 21	 0.00211	 0.00899	 0	 3421	 3421	 3421	 0	 0	 1	-30	 30;
	 139	 145	 0.001289	 0.005651	 0	 553	 5450	 5450	 0	 0	 1	-30	 30;
	 139	 51	 0.002479	 0.009021	 0	 3377	 3377	 3377	 0	 0	 1	-30	 30;
	 139	 122	 0.00151	 0.010521	 0	 419	 2972	 2972	 0	 0	 1	-30	 30;
	 160	 100	 0.001031	 0.006349	 0	 4911	 4911	 4911	 0	 0	 1	-30	 30;
	 160	 5	 0.00668	 0.0297	 0	 553	 1038	 1038	 0	 0	 1	-30	 30;
	 34	 81	 0.001969	 0.01205	 0	 495	 2588	 2588	 0	 0	 1	-30	 30;
	 34	 82	 0.000461	 0.003031	 0	 572	 10303	 10303	 0	 0	 1	-30	 30;
	 20	 157	 0.0007	 0.00782	 0	 1678	 4024	 4024	 0	 0	 1	-30	 30;
	 20	 29	 0.00046	 0.00432	 0	 1843	 7271	 7271	 0	 0	 1	-30	 30;
	 20	 49	 0.00049	 0.00617	 0	 1678	 5104	 5104	 0	 0	 1	-30	 30;
	 20	 16	 0.00127	 0.01514	 0	 1777	 2080	 2080	 0	 0	 1	-30	 30;
	 57	 125	 0.00232	 0.01843	 0	 1701	 1701	 1701	 0	 0	 1	-30	 30;
	 57	 28	 0.00488	 0.032151	 0	 553	 972	 972	 0	 0	 1	-30	 30;
	 23	 64	 0.000229	 0.00136	 0	 533	 22904	 22904	 0	 0	 1	-30	 30;
	 23	 131	 0.0003	 0.001531	 0	 476	 20247	 20247	 0	 0	 1	-30	 30;
	 23	 107	 0.00026	 0.00126	 0	 400	 24553	 24553	 0	 0	 1	-30	 30;
	 23	 110	 0.00056	 0.002091	 0	 553	 14593	 14593	 0	 0	 1	-30	 30;
	 133	 93	 0.00324	 0.01095	 0	 857	 2767	 2767	 0	 0	 1	-30	 30;
	 42	 6	 0.001539	 0.00839	 0	 438	 3704	 3704	 0	 0	 1	-30	 30;
	 42	 6	 0.001919	 0.010479	 0	 514	 2966	 2966	 0	 0	 1	-30	 30;
	 6	 163	 0.001169	 0.007031	 0	 438	 4432	 4432	 0	 0	 1	-30	 30;
	 31	 6	 0.00739	 0.034081	 0	 906	 906	 906	 0	 0	 1	-30	 30;
	 85	 6	 0.00164	 0.00964	 0	 419	 3231	 3231	 0	 0	 1	-30	 30;
	 106	 6	 0.00206	 0.012	 0	 457	 2595	 2595	 0	 0	 1	-30	 30;
	 99	 6	 0.000961	 0.00531	 0	 457	 5854	 5854	 0	 0	 1	-30	 30;
	 56	 130	 6e-05	 0.00029	 0	 987	 106663	 106663	 0	 0	 1	-30	 30;
	 22	 84	 0.001919	 0.013151	 0	 381	 2377	 2377	 0	 0	 1	-30	 30;
	 11	 84	 0.00019	 0.00107	 0	 400	 29067	 29067	 0	 0	 1	-30	 30;
	 11	 84	 0.00018	 0.001091	 0	 438	 28567	 28567	 0	 0	 1	-30	 30;
	 126	 16	 0.0007	 0.00744	 0	 889	 4227	 4227	 0	 0	 1	-30	 30;
	 126	 71	 0.00159	 0.0148	 0	 921	 2123	 2123	 0	 0	 1	-30	 30;
	 149	 24	 0.000281	 0.00169	 0	 18438	 18438	 18438	 0	 0	 1	-30	 30;
	 149	 127	 0.000169	 0.001531	 0	 495	 20508	 20508	 0	 0	 1	-30	 30;
	 149	 154	 0.00038	 0.00326	 0	 9625	 9625	 9625	 0	 0	 1	-30	 30;
	 18	 87	 0.001771	 0.01107	 0	 400	 2818	 2818	 0	 0	 1	-30	 30;
	 72	 87	 0.007969	 0.04238	 0	 733	 733	 733	 0	 0	 1	-30	 30;
	 42	 135	 0.00013	 0.00062	 0	 495	 49864	 49864	 0	 0	 1	-30	 30;
	 42	 3	 0.0002	 0.00201	 0	 572	 15638	 15638	 0	 0	 1	-30	 30;
	 69	 152	 0.000969	 0.006831	 0	 438	 4579	 4579	 0	 0	 1	-30	 30;
	 69	 161	 0.002531	 0.016961	 0	 533	 1842	 1842	 0	 0	 1	-30	 30;
	 74	 31	 0.00113	 0.00651	 0	 419	 4781	 4781	 0	 0	 1	-30	 30;
	 74	 31	 0.001159	 0.00637	 0	 419	 4879	 4879	 0	 0	 1	-30	 30;
	 74	 122	 0.00611	 0.03288	 0	 457	 945	 945	 0	 0	 1	-30	 30;
	 33	 108	 0.008219	 0.04925	 0	 633	 633	 633	 0	 0	 1	-30	 30;
	 33	 30	 0.006771	 0.04132	 0	 438	 755	 755	 0	 0	 1	-30	 30;
	 97	 11	 0.001651	 0.006789	 0	 533	 4521	 4521	 0	 0	 1	-30	 30;
	 97	 51	 0.001461	 0.007229	 0	 4283	 4283	 4283	 0	 0	 1	-30	 30;
	 104	 163	 0.001031	 0.006469	 0	 4823	 4823	 4823	 0	 0	 1	-30	 30;
	 101	 100	 0.00187	 0.010659	 0	 553	 2919	 2919	 0	 0	 1	-30	 30;
	 143	 100	 0.00286	 0.01538	 0	 610	 2020	 2020	 0	 0	 1	-30	 30;
	 100	 90	 0.0008	 0.00444	 0	 419	 7002	 7002	 0	 0	 1	-30	 30;
	 21	 11	 0.00082	 0.00381	 0	 572	 8106	 8106	 0	 0	 1	-30	 30;
	 142	 158	 6e-05	 0.000581	 0	 438	 54080	 54080	 0	 0	 1	-30	 30;
	 142	 110	 9.1e-05	 0.00074	 0	 514	 42367	 42367	 0	 0	 1	-30	 30;
	 48	 138	 0.0004	 0.00479	 0	 1678	 6572	 6572	 0	 0	 1	-30	 30;
	 48	 138	 0.00052	 0.00481	 0	 1744	 6529	 6529	 0	 0	 1	-30	 30;
	 48	 148	 0.00135	 0.01431	 0	 1744	 2198	 2198	 0	 0	 1	-30	 30;
	 9	 13	 0.00339	 0.020531	 0	 1518	 1518	 1518	 0	 0	 1	-30	 30;
	 58	 95	 0.00487	 0.026341	 0	 533	 1180	 1180	 0	 0	 1	-30	 30;
	 25	 67	 9.1e-05	 0.00076	 0	 419	 41268	 41268	 0	 0	 1	-30	 30;
	 25	 114	 0.003919	 0.01682	 0	 476	 1829	 1829	 0	 0	 1	-30	 30;
	 105	 14	 0.00117	 0.0131	 0	 1514	 2402	 2402	 0	 0	 1	-30	 30;
	 96	 89	 0.008271	 0.02787	 0	 495	 1087	 1087	 0	 0	 1	-30	 30;
	 96	 18	 0.016599	 0.0572	 0	 419	 531	 531	 0	 0	 1	-30	 30;
	 96	 146	 0.00999	 0.057	 0	 546	 546	 546	 0	 0	 1	-30	 30;
	 96	 146	 0.01132	 0.05586	 0	 555	 555	 555	 0	 0	 1	-30	 30;
	 89	 152	 0.003281	 0.01038	 0	 495	 2902	 2902	 0	 0	 1	-30	 30;
	 73	 2	 0.003711	 0.01725	 0	 457	 1791	 1791	 0	 0	 1	-30	 30;
	 73	 119	 0.00069	 0.00232	 0	 457	 13051	 13051	 0	 0	 1	-30	 30;
	 155	 88	 0.004151	 0.02436	 0	 514	 1279	 1279	 0	 0	 1	-30	 30;
	 93	 88	 0.006781	 0.028729	 0	 476	 1071	 1071	 0	 0	 1	-30	 30;
	 115	 135	 0.000401	 0.00164	 0	 476	 18710	 18710	 0	 0	 1	-30	 30;
	 31	 85	 0.006659	 0.03437	 0	 903	 903	 903	 0	 0	 1	-30	 30;
	 156	 27	 0.001461	 0.009479	 0	 3294	 3294	 3294	 0	 0	 1	-30	 30;
	 156	 137	 0.001841	 0.011081	 0	 514	 2813	 2813	 0	 0	 1	-30	 30;
	 132	 14	 0.00113	 0.00956	 0	 1185	 3282	 3282	 0	 0	 1	-30	 30;
	 132	 14	 0.00115	 0.00935	 0	 1218	 3354	 3354	 0	 0	 1	-30	 30;
	 159	 77	 0.00161	 0.02036	 0	 1547	 1547	 1547	 0	 0	 1	-30	 30;
	 159	 77	 0.00157	 0.02075	 0	 1518	 1518	 1518	 0	 0	 1	-30	 30;
	 151	 10	 0.00197	 0.02312	 0	 1283	 1362	 1362	 0	 0	 1	-30	 30;
	 148	 138	 0.00086	 0.00783	 0	 1744	 4011	 4011	 0	 0	 1	-30	 30;
	 148	 138	 0.00095	 0.00855	 0	 1547	 3672	 3672	 0	 0	 1	-30	 30;
	 4	 138	 0.00012	 0.00157	 0	 1843	 20061	 20061	 0	 0	 1	-30	 30;
	 4	 138	 0.00013	 0.00154	 0	 757	 20439	 20439	 0	 0	 1	-30	 30;
	 91	 122	 0.00089	 0.004771	 0	 533	 6509	 6509	 0	 0	 1	-30	 30;
	 91	 121	 0.002	 0.00881	 0	 553	 3497	 3497	 0	 0	 1	-30	 30;
	 17	 112	 0.0023	 0.0157	 0	 381	 1991	 1991	 0	 0	 1	-30	 30;
	 17	 72	 0.003479	 0.021159	 0	 419	 1474	 1474	 0	 0	 1	-30	 30;
	 70	 53	 0.00107	 0.01013	 0	 1382	 3101	 3101	 0	 0	 1	-30	 30;
	 24	 131	 0.00025	 0.000909	 0	 514	 33506	 33506	 0	 0	 1	-30	 30;
	 24	 107	 0.00037	 0.00188	 0	 438	 16486	 16486	 0	 0	 1	-30	 30;
	 155	 93	 0.01081	 0.0538	 0	 476	 576	 576	 0	 0	 1	-30	 30;
	 155	 146	 0.005581	 0.02457	 0	 495	 1254	 1254	 0	 0	 1	-30	 30;
	 155	 146	 0.00569	 0.024039	 0	 533	 1279	 1279	 0	 0	 1	-30	 30;
	 15	 65	 0.00018	 0.001349	 0	 553	 23210	 23210	 0	 0	 1	-30	 30;
	 15	 122	 0.000961	 0.006021	 0	 381	 5181	 5181	 0	 0	 1	-30	 30;
	 15	 122	 0.000979	 0.00589	 0	 381	 5291	 5291	 0	 0	 1	-30	 30;
	 81	 82	 0.000969	 0.0053	 0	 553	 5863	 5863	 0	 0	 1	-30	 30;
	 38	 60	 0.004331	 0.025	 0	 1245	 1245	 1245	 0	 0	 1	-30	 30;
	 38	 60	 0.004409	 0.02445	 0	 1272	 1272	 1272	 0	 0	 1	-30	 30;
	 62	 125	 0.000581	 0.004599	 0	 6815	 6815	 6815	 0	 0	 1	-30	 30;
	 62	 125	 0.00057	 0.00469	 0	 6686	 6686	 6686	 0	 0	 1	-30	 30;
	 62	 125	 0.00087	 0.003159	 0	 591	 9641	 9641	 0	 0	 1	-30	 30;
	 2	 113	 0.00293	 0.01293	 0	 400	 2383	 2383	 0	 0	 1	-30	 30;
	 148	 144	 0.00113	 0.01235	 0	 1777	 2548	 2548	 0	 0	 1	-30	 30;
	 148	 144	 0.00128	 0.0121	 0	 1744	 2597	 2597	 0	 0	 1	-30	 30;
	 148	 153	 0.0015	 0.01792	 0	 1415	 1757	 1757	 0	 0	 1	-30	 30;
	 82	 26	 0.00111	 0.005281	 0	 5854	 5854	 5854	 0	 0	 1	-30	 30;
	 82	 26	 0.00113	 0.005169	 0	 5970	 5970	 5970	 0	 0	 1	-30	 30;
	 111	 50	 0.00563	 0.03255	 0	 476	 957	 957	 0	 0	 1	-30	 30;
	 19	 50	 0.005289	 0.022539	 0	 1365	 1365	 1365	 0	 0	 1	-30	 30;
	 50	 116	 0.007159	 0.05086	 0	 400	 616	 616	 0	 0	 1	-30	 30;
	 50	 63	 0.009669	 0.05649	 0	 552	 552	 552	 0	 0	 1	-30	 30;
	 50	 114	 0.0092	 0.052169	 0	 553	 597	 597	 0	 0	 1	-30	 30;
	 27	 78	 0.001711	 0.01255	 0	 2494	 2494	 2494	 0	 0	 1	-30	 30;
	 27	 28	 0.005	 0.03962	 0	 553	 791	 791	 0	 0	 1	-30	 30;
	 35	 90	 0.002219	 0.00988	 0	 438	 3120	 3120	 0	 0	 1	-30	 30;
	 131	 115	 0.000469	 0.001669	 0	 400	 18221	 18221	 0	 0	 1	-30	 30;
	 68	 43	 0.00041	 0.00492	 0	 1251	 6399	 6399	 0	 0	 1	-30	 30;
	 56	 43	 0.00296	 0.02677	 0	 1173	 1173	 1173	 0	 0	 1	-30	 30;
	 85	 137	 0.00163	 0.011091	 0	 457	 2818	 2818	 0	 0	 1	-30	 30;
	 85	 120	 0.00036	 0.002651	 0	 11807	 11807	 11807	 0	 0	 1	-30	 30;
	 158	 1	 0.00013	 0.00132	 0	 514	 23815	 23815	 0	 0	 1	-30	 30;
	 158	 3	 0.000169	 0.001659	 0	 457	 18942	 18942	 0	 0	 1	-30	 30;
	 77	 152	 0.00136	 0.012831	 0	 2449	 2449	 2449	 0	 0	 1	-30	 30;
	 77	 152	 0.00139	 0.01256	 0	 2500	 2500	 2500	 0	 0	 1	-30	 30;
	 77	 95	 0.00126	 0.009521	 0	 3289	 3289	 3289	 0	 0	 1	-30	 30;
	 77	 95	 0.00143	 0.009331	 0	 3347	 3347	 3347	 0	 0	 1	-30	 30;
	 60	 77	 0.00164	 0.012961	 0	 2418	 2418	 2418	 0	 0	 1	-30	 30;
	 60	 77	 0.001599	 0.012	 0	 2610	 2610	 2610	 0	 0	 1	-30	 30;
	 124	 64	 0.00032	 0.0015	 0	 514	 20595	 20595	 0	 0	 1	-30	 30;
	 124	 110	 0.00032	 0.00112	 0	 419	 27118	 27118	 0	 0	 1	-30	 30;
	 112	 19	 0.006771	 0.039349	 0	 792	 792	 792	 0	 0	 1	-30	 30;
	 18	 83	 0.002651	 0.016771	 0	 1861	 1861	 1861	 0	 0	 1	-30	 30;
	 55	 18	 0.0082	 0.025081	 0	 400	 1198	 1198	 0	 0	 1	-30	 30;
	 132	 144	 0.00116	 0.01347	 0	 1514	 2337	 2337	 0	 0	 1	-30	 30;
	 132	 144	 0.00113	 0.01247	 0	 1547	 2523	 2523	 0	 0	 1	-30	 30;
	 119	 101	 0.005539	 0.0195	 0	 1559	 1559	 1559	 0	 0	 1	-30	 30;
	 152	 161	 0.003099	 0.017849	 0	 495	 1744	 1744	 0	 0	 1	-30	 30;
	 152	 95	 0.002831	 0.014099	 0	 533	 2197	 2197	 0	 0	 1	-30	 30;
	 71	 36	 0	 0.01368	 0	 1580	 2310	 2310	 0	 0	 1	-30	 30;
	 72	 83	 0.01082	 0.079719	 0	 393	 393	 393	 0	 0	 1	-30	 30;
	 136	 144	 0.00094	 0.0092	 0	 1909	 3416	 3416	 0	 0	 1	-30	 30;
	 136	 144	 0.00095	 0.00901	 0	 1711	 3487	 3487	 0	 0	 1	-30	 30;
	 13	 41	 0.00101	 0.00719	 0	 4351	 4351	 4351	 0	 0	 1	-30	 30;
...
];

mpc_regionR2.gencost = [
%	2           startup     shutdown    n           c(n-1)...c0 
	 2	 0	 0	 3	 0	 13.31811	 0;
	 2	 0	 0	 3	 0	 31.285403	 0;
	 2	 0	 0	 3	 0	 35.05488	 0;
	 2	 0	 0	 3	 0	 15.771301	 0;
	 2	 0	 0	 3	 0	 8.858522	 0;
	 2	 0	 0	 3	 0	 22.809671	 0;
	 2	 0	 0	 3	 0	 11.809591	 0;
	 2	 0	 0	 3	 0	 19.513954	 0;
	 2	 0	 0	 3	 0	 28.287736	 0;
	 2	 0	 0	 3	 0	 27.607326	 0;
	 2	 0	 0	 3	 0	 30.347023	 0;
	 2	 0	 0	 3	 0	 110.536936	 0;
	 2	 0	 0	 3	 0	 40.269555	 0;
	 2	 0	 0	 3	 0	 14.383703	 0;
	 2	 0	 0	 3	 0	 28.37074	 0;
	 2	 0	 0	 3	 0	 30.042676	 0;
	 2	 0	 0	 3	 0	 100.75963	 0;
	 2	 0	 0	 3	 0	 38.052024	 0;
	 2	 0	 0	 3	 0	 19.652438	 0;
	 2	 0	 0	 3	 0	 38.975567	 0;
	 2	 0	 0	 3	 0	 37.822683	 0;
	 2	 0	 0	 3	 0	 37.887224	 0;
	 2	 0	 0	 3	 0	 17.730736	 0;
	 2	 0	 0	 3	 0	 44.835562	 0;
	 2	 0	 0	 3	 0	 10.838185	 0;
	 2	 0	 0	 3	 0	 115.541502	 0;
	 2	 0	 0	 3	 0	 24.07522	 0;
	 2	 0	 0	 3	 0	 12.790039	 0;
	 2	 0	 0	 3	 0	 28.55129	 0;
	 2	 0	 0	 3	 0	 31.544507	 0;
	 2	 0	 0	 3	 0	 21.188047	 0;
	 2	 0	 0	 3	 0	 28.591181	 0;
	 2	 0	 0	 3	 0	 20.242523	 0;
	 2	 0	 0	 3	 0	 14.678842	 0;
	 2	 0	 0	 3	 0	 37.059844	 0;
	 2	 0	 0	 3	 0	 25.059413	 0;
	 2	 0	 0	 3	 0	 28.369052	 0;
	 2	 0	 0	 3	 0	 30.59763	 0;
	 2	 0	 0	 3	 0	 30.972183	 0;
];


% -------------------- mpc_regionR3 --------------------

mpc_regionR3.version = '2';
mpc_regionR3.baseMVA = 100.0000;
mpc_regionR3.bus = [
%	bus_i       type        Pd          Qd          Gs          Bs          area        Vm          Va          baseKV      zone        Vmax        Vmin        
	 1	 2	 0	 0	 0	 0	 0	 1	 0	 220	 4	 1.1	 0.9;
	 2	 2	 0	 0	 0	 0	 0	 1	 0	 220	 4	 1.1	 0.9;
	 3	 1	 152.07	 22.52	 0	 7.87	 0	 1	 0	 220	 4	 1.1	 0.9;
	 4	 1	-0	-0	 0	 26.3	 0	 1	 0	 220	 4	 1.1	 0.9;
	 5	 1	 38.74	 9	 0	 0.57	 0	 1	 0	 220	 4	 1.1	 0.9;
	 6	 1	 0	-0	 0	 140.96	 0	 1	 0	 380	 4	 1.1	 0.9;
	 7	 2	 0	 0	 0	 0	 0	 1	 0	 220	 4	 1.1	 0.9;
	 8	 2	 0	 0	 0	 0	 0	 1	 0	 220	 4	 1.1	 0.9;
	 9	 1	-22.95	-3.72	 0	 14.34	 0	 1	 0	 220	 4	 1.1	 0.9;
	 10	 2	 0	 0	 0	 0	 0	 1	 0	 220	 4	 1.1	 0.9;
	 11	 1	 277.7	 45.4	 0	 0.7	 0	 1	 0	 220	 4	 1.1	 0.9;
	 12	 1	 33.34	 15.7	 0	 64.15	 0	 1	 0	 380	 4	 1.1	 0.9;
	 13	 2	 0	 0	 0	 0	 0	 1	 0	 220	 4	 1.1	 0.9;
	 14	 1	-0	 0	 0	 93.75	 0	 1	 0	 380	 4	 1.1	 0.9;
	 15	 1	 96.41	 26.5	 0	 0.08	 0	 1	 0	 220	 4	 1.1	 0.9;
	 16	 2	 0	 0	 0	 0	 0	 1	 0	 380	 4	 1.1	 0.9;
	 17	 2	 0	 0	 0	 0	 0	 1	 0	 380	 4	 1.1	 0.9;
	 18	 2	 0	 0	 0	 0	 0	 1	 0	 220	 4	 1.1	 0.9;
	 19	 1	 132.1	 32.4	 0	 58.29	 0	 1	 0	 380	 4	 1.1	 0.9;
	 20	 1	 2	 114.6	 0	 16.15	 0	 1	 0	 220	 4	 1.1	 0.9;
	 21	 2	 0	 0	 0	 0	 0	 1	 0	 380	 4	 1.1	 0.9;
	 22	 2	 0	 0	 0	 0	 0	 1	 0	 220	 4	 1.1	 0.9;
	 23	 1	 65.77	 16.1	 0	 1.66	 0	 1	 0	 220	 4	 1.1	 0.9;
	 24	 1	 62.27	-2.1	 0	 8.01	 0	 1	 0	 220	 4	 1.1	 0.9;
	 25	 1	 0	-0	 0	 0.84	 0	 1	 0	 220	 4	 1.1	 0.9;
	 26	 1	 136.06	 40.4	 0	 12.08	 0	 1	 0	 220	 4	 1.1	 0.9;
	 27	 2	 0	 0	 0	 0	 0	 1	 0	 220	 4	 1.1	 0.9;
	 28	 1	 59.27	 5.1	 0	 26.03	 0	 1	 0	 380	 4	 1.1	 0.9;
	 29	 1	 0	-0	 0	 89.06	 0	 1	 0	 380	 4	 1.1	 0.9;
	 30	 2	 0	 0	 0	 0	 0	 1	 0	 220	 4	 1.1	 0.9;
	 31	 2	 0	 0	 0	 0	 0	 1	 0	 220	 4	 1.1	 0.9;
	 32	 1	 0	-0	 0	 107.39	 0	 1	 0	 380	 4	 1.1	 0.9;
	 33	 1	 6.11	-0	 0	 2.51	 0	 1	 0	 220	 4	 1.1	 0.9;
	 34	 2	 0	 0	 0	 0	 0	 1	 0	 220	 4	 1.1	 0.9;
	 35	 1	 2.4	 0.7	 0	 10.69	 0	 1	 0	 220	 4	 1.1	 0.9;
	 36	 2	 0	 0	 0	 0	 0	 1	 0	 380	 4	 1.1	 0.9;
	 37	 1	 0	-0	 0	 7.52	 0	 1	 0	 220	 4	 1.1	 0.9;
	 38	 1	 204.6	 53.2	 0	 7.4	 0	 1	 0	 220	 4	 1.1	 0.9;
	 39	 1	 20.82	 36	 0	 0.97	 0	 1	 0	 220	 4	 1.1	 0.9;
	 40	 2	 0	 0	 0	 0	 0	 1	 0	 380	 4	 1.1	 0.9;
	 41	 1	 82.19	 23.4	 0	 17.91	 0	 1	 0	 380	 4	 1.1	 0.9;
	 42	 1	-35.74	 38.6	 0	 4.65	 0	 1	 0	 220	 4	 1.1	 0.9;
	 43	 1	 0	 0	 0	 0.48	 0	 1	 0	 220	 4	 1.1	 0.9;
	 44	 2	 0	 0	 0	 0	 0	 1	 0	 380	 4	 1.1	 0.9;
	 45	 1	 60.27	 9.4	 0	 0.62	 0	 1	 0	 220	 4	 1.1	 0.9;
	 46	 1	 34.04	 0	 0	 2.4	 0	 1	 0	 220	 4	 1.1	 0.9;
	 47	 1	 162.5	 48.4	 0	 5.73	 0	 1	 0	 220	 4	 1.1	 0.9;
	 48	 1	 85.8	 13.4	 0	 3.23	 0	 1	 0	 220	 4	 1.1	 0.9;
	 49	 2	 0	 0	 0	 0	 0	 1	 0	 220	 4	 1.1	 0.9;
	 50	 1	 8.51	 3.2	 0	 2.93	 0	 1	 0	 220	 4	 1.1	 0.9;
	 51	 1	-2.23	-1.27	 0	 3.64	 0	 1	 0	 220	 4	 1.1	 0.9;
	 52	 1	 94.3	 13.8	 0	 5.3	 0	 1	 0	 220	 4	 1.1	 0.9;
	 53	 2	 0	 0	 0	 0	 0	 1	 0	 220	 4	 1.1	 0.9;
	 54	 1	 52.06	 14.3	 0	 1.59	 0	 1	 0	 220	 4	 1.1	 0.9;
	 55	 2	 0	 0	 0	 0	 0	 1	 0	 220	 4	 1.1	 0.9;
	 56	 1	 129.5	 38.3	 0	 5.42	 0	 1	 0	 220	 4	 1.1	 0.9;
	 57	 1	 6.11	-0	 0	 0.92	 0	 1	 0	 220	 4	 1.1	 0.9;
	 58	 1	 25.23	 11.9	 0	 18.72	 0	 1	 0	 380	 4	 1.1	 0.9;
	 59	 2	 0	 0	 0	 0	 0	 1	 0	 220	 4	 1.1	 0.9;
	 60	 2	 0	 0	 0	 0	 0	 1	 0	 220	 4	 1.1	 0.9;
	 61	 1	 193.1	 69.9	 0	 28.91	 0	 1	 0	 380	 4	 1.1	 0.9;
	 62	 1	 110.3	 28.7	 0	 0.65	 0	 1	 0	 220	 4	 1.1	 0.9;
	 63	 1	 93.2	 13.6	 0	 14.9	 0	 1	 0	 220	 4	 1.1	 0.9;
	 64	 1	 119.2	 32.1	 0	 4.14	 0	 1	 0	 220	 4	 1.1	 0.9;
	 65	 1	 0	-0	 0	 68.93	 0	 1	 0	 380	 4	 1.1	 0.9;
	 66	 1	 252.9	 95.6	 0	 1.22	 0	 1	 0	 220	 4	 1.1	 0.9;
	 67	 2	 0	 0	 0	 0	 0	 1	 0	 220	 4	 1.1	 0.9;
	 68	 1	-0	 0	 0	 3.08	 0	 1	 0	 380	 4	 1.1	 0.9;
	 69	 1	 36.24	 5.7	 0	 15.06	 0	 1	 0	 220	 4	 1.1	 0.9;
	 70	 2	 0	 0	 0	 0	 0	 1	 0	 220	 4	 1.1	 0.9;
	 71	 1	 63.47	 30.2	 0	 81.36	 0	 1	 0	 380	 4	 1.1	 0.9;
	 72	 1	 0	 0	 0	 22.7	 0	 1	 0	 380	 4	 1.1	 0.9;
	 73	 1	 55.86	 8.8	 0	 4.2	 0	 1	 0	 220	 4	 1.1	 0.9;
	 74	 1	 119.7	 3.7	 0	 0.88	 0	 1	 0	 220	 4	 1.1	 0.9;
	 75	 1	-0	 0	 0	 8.33	 0	 1	 0	 220	 4	 1.1	 0.9;
	 76	 1	-0	 0	 0	 3.25	 0	 1	 0	 220	 4	 1.1	 0.9;
	 77	 2	 0	 0	 0	 0	 0	 1	 0	 220	 4	 1.1	 0.9;
	 78	 2	 0	 0	 0	 0	 0	 1	 0	 220	 4	 1.1	 0.9;
	 79	 2	 0	 0	 0	 0	 0	 1	 0	 220	 4	 1.1	 0.9;
	 80	 1	-0	 0	 0	 17.75	 0	 1	 0	 380	 4	 1.1	 0.9;
	 81	 1	 0	-0	 0	 78.22	 0	 1	 0	 380	 4	 1.1	 0.9;
	 82	 2	 0	 0	 0	 0	 0	 1	 0	 220	 4	 1.1	 0.9;
...